MODEL 1
REMARK VINA RESULT:     -10.2      0.000      0.000
REMARK  12 active torsions:
REMARK  status: ('A' for Active; 'I' for Inactive)
REMARK    1  A    between atoms: S_1  and  N_10 
REMARK    2  A    between atoms: S_1  and  C_33 
REMARK    3  A    between atoms: O_3  and  C_31 
REMARK    4  A    between atoms: O_3  and  C_37 
REMARK    5  A    between atoms: N_9  and  C_21 
REMARK    6  A    between atoms: N_10  and  C_40 
REMARK    7  A    between atoms: C_19  and  C_20 
REMARK    8  A    between atoms: C_20  and  C_22 
REMARK    9  A    between atoms: C_21  and  C_23 
REMARK   10  A    between atoms: C_22  and  C_24 
REMARK   11  A    between atoms: C_27  and  C_31 
REMARK   12  A    between atoms: C_29  and  C_32 
ROOT
HETATM    1  C   UNK     0       6.634   5.029 -12.395  0.00  0.00    -0.039 A 
HETATM    2  C   UNK     0       5.366   4.472 -12.227  0.00  0.00     0.019 A 
HETATM    3  C   UNK     0       7.054   6.069 -11.567  0.00  0.00     0.010 A 
HETATM    4  C   UNK     0       4.518   4.956 -11.231  0.00  0.00    -0.023 A 
HETATM    5  C   UNK     0       4.939   5.996 -10.403  0.00  0.00    -0.016 A 
HETATM    6  C   UNK     0       6.206   6.553 -10.570  0.00  0.00     0.013 A 
ENDROOT
BRANCH   5   7
HETATM    7  C   UNK     0       4.077   6.516  -9.358  0.00  0.00    -0.002 A 
HETATM    8  C   UNK     0       4.074   5.967  -8.076  0.00  0.00     0.090 A 
HETATM    9  C   UNK     0       3.233   6.494  -7.095  0.00  0.00     0.026 A 
HETATM   10  C   UNK     0       2.396   7.568  -7.397  0.00  0.00     0.002 A 
HETATM   11  C   UNK     0       2.399   8.116  -8.679  0.00  0.00     0.001 A 
HETATM   12  C   UNK     0       3.240   7.590  -9.660  0.00  0.00     0.014 A 
BRANCH   8  13
HETATM   13  S   UNK     0       5.107   4.618  -7.643  0.00  0.00     0.265 S 
HETATM   14  O   UNK     0       6.390   4.808  -8.303  0.00  0.00    -0.200 OA
HETATM   15  O   UNK     0       5.053   4.461  -6.198  0.00  0.00    -0.200 OA
BRANCH  13  16
HETATM   16  N   UNK     0       4.281   3.323  -8.383  0.00  0.00    -0.264 N 
HETATM   17  H   UNK     0       4.427   3.170  -9.389  0.00  0.00     0.180 HD
BRANCH  16  18
HETATM   18  C   UNK     0       3.570   2.313  -7.692  0.00  0.00     0.143 A 
HETATM   19  N   UNK     0       4.181   1.359  -6.983  0.00  0.00    -0.244 N 
HETATM   20  O   UNK     0       3.153   0.576  -6.472  0.00  0.00    -0.240 OA
HETATM   21  HN  UNK     0       5.184   1.234  -6.846  1.00  0.00     0.196 HD
HETATM   22  C   UNK     0       1.961   1.076  -6.886  0.00  0.00     0.082 A 
HETATM   23  C   UNK     0       2.171   2.183  -7.666  0.00  0.00     0.016 A 
HETATM   24  C   UNK     0       0.761   0.359  -6.435  0.00  0.00     0.079 C 
HETATM   25  C   UNK     0       1.158   3.029  -8.320  0.00  0.00     0.055 C 
ENDBRANCH  16  18
ENDBRANCH  13  16
ENDBRANCH   8  13
ENDBRANCH   5   7
BRANCH   4  26
HETATM   26  C   UNK     0       3.167   4.334 -11.079  0.00  0.00     0.207 C 
BRANCH  26  27
HETATM   27  O   UNK     0       3.295   2.920 -11.120  0.00  0.00    -0.387 OA
BRANCH  27  28
HETATM   28  C   UNK     0       2.575   2.362 -12.212  0.00  0.00     0.163 C 
HETATM   29  C   UNK     0       1.468   1.480 -11.674  0.00  0.00     0.033 C 
ENDBRANCH  27  28
ENDBRANCH  26  27
ENDBRANCH   4  26
BRANCH   1  30
HETATM   30  C   UNK     0       7.546   4.508 -13.468  0.00  0.00     0.172 C 
BRANCH  30  31
HETATM   31  N   UNK     0       7.091   3.235 -13.998  0.00  0.00    -0.301 N 
HETATM   32  C   UNK     0       7.404   2.014 -13.464  0.00  0.00     0.254 A 
HETATM   33  O   UNK     0       8.095   1.759 -12.490  0.00  0.00    -0.270 OA
HETATM   34  C   UNK     0       6.710   0.993 -14.343  0.00  0.00     0.113 A 
HETATM   35  N   UNK     0       6.025   1.807 -15.374  0.00  0.00    -0.362 N 
HETATM   36  C   UNK     0       5.695   0.143 -13.571  0.00  0.00     0.041 C 
HETATM   37  C   UNK     0       7.695   0.023 -15.004  0.00  0.00     0.041 C 
HETATM   38  C   UNK     0       6.311   3.037 -15.077  0.00  0.00     0.083 A 
HETATM   39  HN  UNK     0       5.453   1.473 -16.149  1.00  0.00     0.162 HD
HETATM   40  C   UNK     0       5.949  -1.287 -14.037  0.00  0.00     0.003 C 
HETATM   41  C   UNK     0       7.441  -1.313 -14.316  0.00  0.00     0.003 C 
BRANCH  38  42
HETATM   42  C   UNK     0       5.804   4.190 -15.881  0.00  0.00     0.076 C 
BRANCH  42  43
HETATM   43  C   UNK     0       4.336   4.466 -15.573  0.00  0.00     0.007 C 
BRANCH  43  44
HETATM   44  C   UNK     0       4.040   5.959 -15.415  0.00  0.00    -0.004 C 
HETATM   45  C   UNK     0       2.841   6.379 -16.250  0.00  0.00     0.005 C 
ENDBRANCH  43  44
ENDBRANCH  42  43
ENDBRANCH  38  42
ENDBRANCH  30  31
ENDBRANCH   1  30
TORSDOF 12
ENDMDL
MODEL 2
REMARK VINA RESULT:      -9.7      3.355      8.051
REMARK  12 active torsions:
REMARK  status: ('A' for Active; 'I' for Inactive)
REMARK    1  A    between atoms: S_1  and  N_10 
REMARK    2  A    between atoms: S_1  and  C_33 
REMARK    3  A    between atoms: O_3  and  C_31 
REMARK    4  A    between atoms: O_3  and  C_37 
REMARK    5  A    between atoms: N_9  and  C_21 
REMARK    6  A    between atoms: N_10  and  C_40 
REMARK    7  A    between atoms: C_19  and  C_20 
REMARK    8  A    between atoms: C_20  and  C_22 
REMARK    9  A    between atoms: C_21  and  C_23 
REMARK   10  A    between atoms: C_22  and  C_24 
REMARK   11  A    between atoms: C_27  and  C_31 
REMARK   12  A    between atoms: C_29  and  C_32 
ROOT
HETATM    1  C   UNK     0       6.580   3.262 -12.975  0.00  0.00    -0.039 A 
HETATM    2  C   UNK     0       5.257   2.832 -12.872  0.00  0.00     0.019 A 
HETATM    3  C   UNK     0       7.619   2.333 -12.955  0.00  0.00     0.010 A 
HETATM    4  C   UNK     0       4.973   1.471 -12.749  0.00  0.00    -0.023 A 
HETATM    5  C   UNK     0       6.013   0.542 -12.730  0.00  0.00    -0.016 A 
HETATM    6  C   UNK     0       7.336   0.971 -12.833  0.00  0.00     0.013 A 
ENDROOT
BRANCH   5   7
HETATM    7  C   UNK     0       5.745  -0.878 -12.606  0.00  0.00    -0.002 A 
HETATM    8  C   UNK     0       5.929  -1.751 -13.679  0.00  0.00     0.090 A 
HETATM    9  C   UNK     0       5.662  -3.111 -13.523  0.00  0.00     0.026 A 
HETATM   10  C   UNK     0       5.212  -3.598 -12.296  0.00  0.00     0.002 A 
HETATM   11  C   UNK     0       5.028  -2.725 -11.224  0.00  0.00     0.001 A 
HETATM   12  C   UNK     0       5.295  -1.365 -11.379  0.00  0.00     0.014 A 
BRANCH   8  13
HETATM   13  S   UNK     0       6.494  -1.192 -15.241  0.00  0.00     0.265 S 
HETATM   14  O   UNK     0       7.854  -0.702 -15.076  0.00  0.00    -0.200 OA
HETATM   15  O   UNK     0       6.214  -2.236 -16.216  0.00  0.00    -0.200 OA
BRANCH  13  16
HETATM   16  N   UNK     0       5.450   0.129 -15.514  0.00  0.00    -0.264 N 
HETATM   17  H   UNK     0       5.212   0.728 -14.714  0.00  0.00     0.180 HD
BRANCH  16  18
HETATM   18  C   UNK     0       5.044   0.593 -16.788  0.00  0.00     0.143 A 
HETATM   19  N   UNK     0       3.763   0.627 -17.167  0.00  0.00    -0.244 N 
HETATM   20  O   UNK     0       3.783   1.133 -18.461  0.00  0.00    -0.240 OA
HETATM   21  HN  UNK     0       2.947   0.342 -16.625  1.00  0.00     0.196 HD
HETATM   22  C   UNK     0       5.068   1.388 -18.821  0.00  0.00     0.082 A 
HETATM   23  C   UNK     0       5.909   1.061 -17.791  0.00  0.00     0.016 A 
HETATM   24  C   UNK     0       5.270   1.929 -20.171  0.00  0.00     0.079 C 
HETATM   25  C   UNK     0       7.377   1.177 -17.756  0.00  0.00     0.055 C 
ENDBRANCH  16  18
ENDBRANCH  13  16
ENDBRANCH   8  13
ENDBRANCH   5   7
BRANCH   4  26
HETATM   26  C   UNK     0       3.544   1.047 -12.644  0.00  0.00     0.207 C 
BRANCH  26  27
HETATM   27  O   UNK     0       3.007   0.879 -13.949  0.00  0.00    -0.387 OA
BRANCH  27  28
HETATM   28  C   UNK     0       2.153  -0.255 -14.020  0.00  0.00     0.163 C 
HETATM   29  C   UNK     0       1.921  -0.786 -12.621  0.00  0.00     0.033 C 
ENDBRANCH  27  28
ENDBRANCH  26  27
ENDBRANCH   4  26
BRANCH   1  30
HETATM   30  C   UNK     0       6.885   4.726 -13.106  0.00  0.00     0.172 C 
BRANCH  30  31
HETATM   31  N   UNK     0       5.870   5.552 -12.475  0.00  0.00    -0.301 N 
HETATM   32  C   UNK     0       5.785   5.788 -11.130  0.00  0.00     0.254 A 
HETATM   33  O   UNK     0       6.501   5.372 -10.233  0.00  0.00    -0.270 OA
HETATM   34  C   UNK     0       4.583   6.695 -10.949  0.00  0.00     0.113 A 
HETATM   35  N   UNK     0       4.065   6.888 -12.322  0.00  0.00    -0.362 N 
HETATM   36  C   UNK     0       4.951   8.042 -10.320  0.00  0.00     0.041 C 
HETATM   37  C   UNK     0       3.504   6.066 -10.060  0.00  0.00     0.041 C 
HETATM   38  C   UNK     0       4.862   6.205 -13.084  0.00  0.00     0.083 A 
HETATM   39  HN  UNK     0       3.256   7.440 -12.608  1.00  0.00     0.162 HD
HETATM   40  C   UNK     0       3.883   8.283  -9.259  0.00  0.00     0.003 C 
HETATM   41  C   UNK     0       3.538   6.886  -8.776  0.00  0.00     0.003 C 
BRANCH  38  42
HETATM   42  C   UNK     0       4.687   6.138 -14.566  0.00  0.00     0.076 C 
BRANCH  42  43
HETATM   43  C   UNK     0       3.464   5.305 -14.933  0.00  0.00     0.007 C 
BRANCH  43  44
HETATM   44  C   UNK     0       3.796   4.171 -15.907  0.00  0.00    -0.004 C 
HETATM   45  C   UNK     0       5.172   4.356 -16.526  0.00  0.00     0.005 C 
ENDBRANCH  43  44
ENDBRANCH  42  43
ENDBRANCH  38  42
ENDBRANCH  30  31
ENDBRANCH   1  30
TORSDOF 12
ENDMDL
MODEL 3
REMARK VINA RESULT:      -9.7      2.033      2.936
REMARK  12 active torsions:
REMARK  status: ('A' for Active; 'I' for Inactive)
REMARK    1  A    between atoms: S_1  and  N_10 
REMARK    2  A    between atoms: S_1  and  C_33 
REMARK    3  A    between atoms: O_3  and  C_31 
REMARK    4  A    between atoms: O_3  and  C_37 
REMARK    5  A    between atoms: N_9  and  C_21 
REMARK    6  A    between atoms: N_10  and  C_40 
REMARK    7  A    between atoms: C_19  and  C_20 
REMARK    8  A    between atoms: C_20  and  C_22 
REMARK    9  A    between atoms: C_21  and  C_23 
REMARK   10  A    between atoms: C_22  and  C_24 
REMARK   11  A    between atoms: C_27  and  C_31 
REMARK   12  A    between atoms: C_29  and  C_32 
ROOT
HETATM    1  C   UNK     0       6.831   4.419 -13.868  0.00  0.00    -0.039 A 
HETATM    2  C   UNK     0       5.531   4.882 -14.073  0.00  0.00     0.019 A 
HETATM    3  C   UNK     0       7.481   4.675 -12.661  0.00  0.00     0.010 A 
HETATM    4  C   UNK     0       4.881   5.601 -13.070  0.00  0.00    -0.023 A 
HETATM    5  C   UNK     0       5.531   5.856 -11.862  0.00  0.00    -0.016 A 
HETATM    6  C   UNK     0       6.830   5.393 -11.657  0.00  0.00     0.013 A 
ENDROOT
BRANCH   5   7
HETATM    7  C   UNK     0       4.876   6.599 -10.803  0.00  0.00    -0.002 A 
HETATM    8  C   UNK     0       4.143   5.955  -9.806  0.00  0.00     0.090 A 
HETATM    9  C   UNK     0       3.528   6.701  -8.801  0.00  0.00     0.026 A 
HETATM   10  C   UNK     0       3.645   8.091  -8.793  0.00  0.00     0.002 A 
HETATM   11  C   UNK     0       4.377   8.735  -9.790  0.00  0.00     0.001 A 
HETATM   12  C   UNK     0       4.994   7.989 -10.794  0.00  0.00     0.014 A 
BRANCH   8  13
HETATM   13  S   UNK     0       3.965   4.211  -9.768  0.00  0.00     0.265 S 
HETATM   14  O   UNK     0       2.972   3.841 -10.765  0.00  0.00    -0.200 OA
HETATM   15  O   UNK     0       5.297   3.626  -9.822  0.00  0.00    -0.200 OA
BRANCH  13  16
HETATM   16  N   UNK     0       3.311   3.981  -8.211  0.00  0.00    -0.264 N 
HETATM   17  H   UNK     0       3.808   4.396  -7.413  0.00  0.00     0.180 HD
BRANCH  16  18
HETATM   18  C   UNK     0       2.031   3.441  -7.940  0.00  0.00     0.143 A 
HETATM   19  N   UNK     0       1.708   2.176  -8.225  0.00  0.00    -0.244 N 
HETATM   20  O   UNK     0       0.386   2.041  -7.816  0.00  0.00    -0.240 OA
HETATM   21  HN  UNK     0       2.302   1.464  -8.650  1.00  0.00     0.196 HD
HETATM   22  C   UNK     0      -0.046   3.221  -7.301  0.00  0.00     0.082 A 
HETATM   23  C   UNK     0       0.964   4.145  -7.356  0.00  0.00     0.016 A 
HETATM   24  C   UNK     0      -1.433   3.253  -6.821  0.00  0.00     0.079 C 
HETATM   25  C   UNK     0       0.926   5.547  -6.907  0.00  0.00     0.055 C 
ENDBRANCH  16  18
ENDBRANCH  13  16
ENDBRANCH   8  13
ENDBRANCH   5   7
BRANCH   4  26
HETATM   26  C   UNK     0       3.487   6.079 -13.323  0.00  0.00     0.207 C 
BRANCH  26  27
HETATM   27  O   UNK     0       3.508   7.059 -14.351  0.00  0.00    -0.387 OA
BRANCH  27  28
HETATM   28  C   UNK     0       2.507   6.810 -15.330  0.00  0.00     0.163 C 
HETATM   29  C   UNK     0       3.173   6.349 -16.609  0.00  0.00     0.033 C 
ENDBRANCH  27  28
ENDBRANCH  26  27
ENDBRANCH   4  26
BRANCH   1  30
HETATM   30  C   UNK     0       7.531   3.646 -14.948  0.00  0.00     0.172 C 
BRANCH  30  31
HETATM   31  N   UNK     0       7.032   2.286 -15.053  0.00  0.00    -0.301 N 
HETATM   32  C   UNK     0       7.415   1.252 -14.242  0.00  0.00     0.254 A 
HETATM   33  O   UNK     0       8.214   1.260 -13.318  0.00  0.00    -0.270 OA
HETATM   34  C   UNK     0       6.637   0.043 -14.724  0.00  0.00     0.113 A 
HETATM   35  N   UNK     0       5.833   0.558 -15.856  0.00  0.00    -0.362 N 
HETATM   36  C   UNK     0       5.724  -0.540 -13.641  0.00  0.00     0.041 C 
HETATM   37  C   UNK     0       7.551  -1.092 -15.197  0.00  0.00     0.041 C 
HETATM   38  C   UNK     0       6.138   1.816 -15.943  0.00  0.00     0.083 A 
HETATM   39  HN  UNK     0       5.181   0.036 -16.442  1.00  0.00     0.162 HD
HETATM   40  C   UNK     0       5.937  -2.047 -13.720  0.00  0.00     0.003 C 
HETATM   41  C   UNK     0       7.389  -2.181 -14.144  0.00  0.00     0.003 C 
BRANCH  38  42
HETATM   42  C   UNK     0       5.533   2.714 -16.972  0.00  0.00     0.076 C 
BRANCH  42  43
HETATM   43  C   UNK     0       4.479   1.975 -17.789  0.00  0.00     0.007 C 
BRANCH  43  44
HETATM   44  C   UNK     0       5.072   1.264 -19.008  0.00  0.00    -0.004 C 
HETATM   45  C   UNK     0       5.428   2.251 -20.108  0.00  0.00     0.005 C 
ENDBRANCH  43  44
ENDBRANCH  42  43
ENDBRANCH  38  42
ENDBRANCH  30  31
ENDBRANCH   1  30
TORSDOF 12
ENDMDL
MODEL 4
REMARK VINA RESULT:      -9.6      2.250      4.192
REMARK  12 active torsions:
REMARK  status: ('A' for Active; 'I' for Inactive)
REMARK    1  A    between atoms: S_1  and  N_10 
REMARK    2  A    between atoms: S_1  and  C_33 
REMARK    3  A    between atoms: O_3  and  C_31 
REMARK    4  A    between atoms: O_3  and  C_37 
REMARK    5  A    between atoms: N_9  and  C_21 
REMARK    6  A    between atoms: N_10  and  C_40 
REMARK    7  A    between atoms: C_19  and  C_20 
REMARK    8  A    between atoms: C_20  and  C_22 
REMARK    9  A    between atoms: C_21  and  C_23 
REMARK   10  A    between atoms: C_22  and  C_24 
REMARK   11  A    between atoms: C_27  and  C_31 
REMARK   12  A    between atoms: C_29  and  C_32 
ROOT
HETATM    1  C   UNK     0       4.585   2.849 -14.891  0.00  0.00    -0.039 A 
HETATM    2  C   UNK     0       5.786   3.135 -14.243  0.00  0.00     0.019 A 
HETATM    3  C   UNK     0       3.420   3.529 -14.537  0.00  0.00     0.010 A 
HETATM    4  C   UNK     0       5.822   4.103 -13.239  0.00  0.00    -0.023 A 
HETATM    5  C   UNK     0       4.658   4.785 -12.885  0.00  0.00    -0.016 A 
HETATM    6  C   UNK     0       3.457   4.498 -13.533  0.00  0.00     0.013 A 
ENDROOT
BRANCH   5   7
HETATM    7  C   UNK     0       4.670   5.797 -11.847  0.00  0.00    -0.002 A 
HETATM    8  C   UNK     0       4.358   5.487 -10.523  0.00  0.00     0.090 A 
HETATM    9  C   UNK     0       4.381   6.486  -9.550  0.00  0.00     0.026 A 
HETATM   10  C   UNK     0       4.715   7.794  -9.900  0.00  0.00     0.002 A 
HETATM   11  C   UNK     0       5.026   8.104 -11.224  0.00  0.00     0.001 A 
HETATM   12  C   UNK     0       5.004   7.105 -12.197  0.00  0.00     0.014 A 
BRANCH   8  13
HETATM   13  S   UNK     0       3.933   3.860 -10.029  0.00  0.00     0.265 S 
HETATM   14  O   UNK     0       2.769   3.447 -10.799  0.00  0.00    -0.200 OA
HETATM   15  O   UNK     0       5.144   3.053 -10.061  0.00  0.00    -0.200 OA
BRANCH  13  16
HETATM   16  N   UNK     0       3.471   4.119  -8.407  0.00  0.00    -0.264 N 
HETATM   17  H   UNK     0       4.111   4.648  -7.803  0.00  0.00     0.180 HD
BRANCH  16  18
HETATM   18  C   UNK     0       2.190   3.844  -7.875  0.00  0.00     0.143 A 
HETATM   19  N   UNK     0       1.660   2.617  -7.870  0.00  0.00    -0.244 N 
HETATM   20  O   UNK     0       0.413   2.765  -7.275  0.00  0.00    -0.240 OA
HETATM   21  HN  UNK     0       2.080   1.758  -8.225  1.00  0.00     0.196 HD
HETATM   22  C   UNK     0       0.228   4.068  -6.941  0.00  0.00     0.082 A 
HETATM   23  C   UNK     0       1.331   4.797  -7.303  0.00  0.00     0.016 A 
HETATM   24  C   UNK     0      -1.050   4.402  -6.300  0.00  0.00     0.079 C 
HETATM   25  C   UNK     0       1.551   6.243  -7.126  0.00  0.00     0.055 C 
ENDBRANCH  16  18
ENDBRANCH  13  16
ENDBRANCH   8  13
ENDBRANCH   5   7
BRANCH   4  26
HETATM   26  C   UNK     0       7.128   4.386 -12.567  0.00  0.00     0.207 C 
BRANCH  26  27
HETATM   27  O   UNK     0       8.074   4.804 -13.540  0.00  0.00    -0.387 OA
BRANCH  27  28
HETATM   28  C   UNK     0       7.838   6.143 -13.957  0.00  0.00     0.163 C 
HETATM   29  C   UNK     0       8.708   6.446 -15.158  0.00  0.00     0.033 C 
ENDBRANCH  27  28
ENDBRANCH  26  27
ENDBRANCH   4  26
BRANCH   1  30
HETATM   30  C   UNK     0       4.545   1.806 -15.971  0.00  0.00     0.172 C 
BRANCH  30  31
HETATM   31  N   UNK     0       5.060   0.528 -15.512  0.00  0.00    -0.301 N 
HETATM   32  C   UNK     0       4.590  -0.152 -14.421  0.00  0.00     0.254 A 
HETATM   33  O   UNK     0       3.697   0.161 -13.649  0.00  0.00    -0.270 OA
HETATM   34  C   UNK     0       5.423  -1.417 -14.338  0.00  0.00     0.113 A 
HETATM   35  N   UNK     0       6.359  -1.310 -15.481  0.00  0.00    -0.362 N 
HETATM   36  C   UNK     0       4.576  -2.688 -14.456  0.00  0.00     0.041 C 
HETATM   37  C   UNK     0       6.203  -1.520 -13.023  0.00  0.00     0.041 C 
HETATM   38  C   UNK     0       6.060  -0.188 -16.058  0.00  0.00     0.083 A 
HETATM   39  HN  UNK     0       7.082  -1.975 -15.754  1.00  0.00     0.162 HD
HETATM   40  C   UNK     0       5.101  -3.610 -13.362  0.00  0.00     0.003 C 
HETATM   41  C   UNK     0       5.527  -2.654 -12.262  0.00  0.00     0.003 C 
BRANCH  38  42
HETATM   42  C   UNK     0       6.780   0.300 -17.273  0.00  0.00     0.076 C 
BRANCH  42  43
HETATM   43  C   UNK     0       8.255   0.545 -16.971  0.00  0.00     0.007 C 
BRANCH  43  44
HETATM   44  C   UNK     0       8.474   1.751 -16.055  0.00  0.00    -0.004 C 
HETATM   45  C   UNK     0       8.854   1.318 -14.648  0.00  0.00     0.005 C 
ENDBRANCH  43  44
ENDBRANCH  42  43
ENDBRANCH  38  42
ENDBRANCH  30  31
ENDBRANCH   1  30
TORSDOF 12
ENDMDL
MODEL 5
REMARK VINA RESULT:      -9.4      2.771      7.376
REMARK  12 active torsions:
REMARK  status: ('A' for Active; 'I' for Inactive)
REMARK    1  A    between atoms: S_1  and  N_10 
REMARK    2  A    between atoms: S_1  and  C_33 
REMARK    3  A    between atoms: O_3  and  C_31 
REMARK    4  A    between atoms: O_3  and  C_37 
REMARK    5  A    between atoms: N_9  and  C_21 
REMARK    6  A    between atoms: N_10  and  C_40 
REMARK    7  A    between atoms: C_19  and  C_20 
REMARK    8  A    between atoms: C_20  and  C_22 
REMARK    9  A    between atoms: C_21  and  C_23 
REMARK   10  A    between atoms: C_22  and  C_24 
REMARK   11  A    between atoms: C_27  and  C_31 
REMARK   12  A    between atoms: C_29  and  C_32 
ROOT
HETATM    1  C   UNK     0       6.580   4.565 -12.859  0.00  0.00    -0.039 A 
HETATM    2  C   UNK     0       5.525   3.661 -12.983  0.00  0.00     0.019 A 
HETATM    3  C   UNK     0       7.414   4.818 -13.947  0.00  0.00     0.010 A 
HETATM    4  C   UNK     0       5.305   3.009 -14.197  0.00  0.00    -0.023 A 
HETATM    5  C   UNK     0       6.139   3.263 -15.285  0.00  0.00    -0.016 A 
HETATM    6  C   UNK     0       7.194   4.167 -15.162  0.00  0.00     0.013 A 
ENDROOT
BRANCH   5   7
HETATM    7  C   UNK     0       5.930   2.600 -16.558  0.00  0.00    -0.002 A 
HETATM    8  C   UNK     0       6.672   1.478 -16.927  0.00  0.00     0.090 A 
HETATM    9  C   UNK     0       6.443   0.865 -18.158  0.00  0.00     0.026 A 
HETATM   10  C   UNK     0       5.473   1.374 -19.022  0.00  0.00     0.002 A 
HETATM   11  C   UNK     0       4.732   2.496 -18.654  0.00  0.00     0.001 A 
HETATM   12  C   UNK     0       4.960   3.109 -17.422  0.00  0.00     0.014 A 
BRANCH   8  13
HETATM   13  S   UNK     0       7.902   0.797 -15.879  0.00  0.00     0.265 S 
HETATM   14  O   UNK     0       8.380  -0.434 -16.491  0.00  0.00    -0.200 OA
HETATM   15  O   UNK     0       8.846   1.855 -15.552  0.00  0.00    -0.200 OA
BRANCH  13  16
HETATM   16  N   UNK     0       6.980   0.416 -14.496  0.00  0.00    -0.264 N 
HETATM   17  H   UNK     0       6.664   1.190 -13.899  0.00  0.00     0.180 HD
BRANCH  16  18
HETATM   18  C   UNK     0       6.439  -0.860 -14.207  0.00  0.00     0.143 A 
HETATM   19  N   UNK     0       6.535  -1.891 -15.052  0.00  0.00    -0.244 N 
HETATM   20  O   UNK     0       5.887  -2.941 -14.413  0.00  0.00    -0.240 OA
HETATM   21  HN  UNK     0       6.986  -1.904 -15.967  1.00  0.00     0.196 HD
HETATM   22  C   UNK     0       5.422  -2.515 -13.210  0.00  0.00     0.082 A 
HETATM   23  C   UNK     0       5.747  -1.197 -13.031  0.00  0.00     0.016 A 
HETATM   24  C   UNK     0       4.704  -3.508 -12.401  0.00  0.00     0.079 C 
HETATM   25  C   UNK     0       5.437  -0.343 -11.872  0.00  0.00     0.055 C 
ENDBRANCH  16  18
ENDBRANCH  13  16
ENDBRANCH   8  13
ENDBRANCH   5   7
BRANCH   4  26
HETATM   26  C   UNK     0       4.163   2.049 -14.294  0.00  0.00     0.207 C 
BRANCH  26  27
HETATM   27  O   UNK     0       3.291   2.245 -13.191  0.00  0.00    -0.387 OA
BRANCH  27  28
HETATM   28  C   UNK     0       2.319   1.211 -13.104  0.00  0.00     0.163 C 
HETATM   29  C   UNK     0       2.536   0.232 -14.239  0.00  0.00     0.033 C 
ENDBRANCH  27  28
ENDBRANCH  26  27
ENDBRANCH   4  26
BRANCH   1  30
HETATM   30  C   UNK     0       6.818   5.266 -11.552  0.00  0.00     0.172 C 
BRANCH  30  31
HETATM   31  N   UNK     0       5.574   5.644 -10.904  0.00  0.00    -0.301 N 
HETATM   32  C   UNK     0       5.189   5.227  -9.659  0.00  0.00     0.254 A 
HETATM   33  O   UNK     0       5.776   4.490  -8.883  0.00  0.00    -0.270 OA
HETATM   34  C   UNK     0       3.839   5.872  -9.410  0.00  0.00     0.113 A 
HETATM   35  N   UNK     0       3.574   6.645 -10.646  0.00  0.00    -0.362 N 
HETATM   36  C   UNK     0       3.844   6.799  -8.190  0.00  0.00     0.041 C 
HETATM   37  C   UNK     0       2.729   4.840  -9.184  0.00  0.00     0.041 C 
HETATM   38  C   UNK     0       4.609   6.441 -11.401  0.00  0.00     0.083 A 
HETATM   39  HN  UNK     0       2.755   7.215 -10.857  1.00  0.00     0.162 HD
HETATM   40  C   UNK     0       2.564   6.457  -7.435  0.00  0.00     0.003 C 
HETATM   41  C   UNK     0       2.372   4.976  -7.709  0.00  0.00     0.003 C 
BRANCH  38  42
HETATM   42  C   UNK     0       4.740   7.054 -12.757  0.00  0.00     0.076 C 
BRANCH  42  43
HETATM   43  C   UNK     0       3.629   6.572 -13.683  0.00  0.00     0.007 C 
BRANCH  43  44
HETATM   44  C   UNK     0       4.106   6.386 -15.125  0.00  0.00    -0.004 C 
HETATM   45  C   UNK     0       3.007   5.810 -16.004  0.00  0.00     0.005 C 
ENDBRANCH  43  44
ENDBRANCH  42  43
ENDBRANCH  38  42
ENDBRANCH  30  31
ENDBRANCH   1  30
TORSDOF 12
ENDMDL
MODEL 6
REMARK VINA RESULT:      -9.4      2.244      3.279
REMARK  12 active torsions:
REMARK  status: ('A' for Active; 'I' for Inactive)
REMARK    1  A    between atoms: S_1  and  N_10 
REMARK    2  A    between atoms: S_1  and  C_33 
REMARK    3  A    between atoms: O_3  and  C_31 
REMARK    4  A    between atoms: O_3  and  C_37 
REMARK    5  A    between atoms: N_9  and  C_21 
REMARK    6  A    between atoms: N_10  and  C_40 
REMARK    7  A    between atoms: C_19  and  C_20 
REMARK    8  A    between atoms: C_20  and  C_22 
REMARK    9  A    between atoms: C_21  and  C_23 
REMARK   10  A    between atoms: C_22  and  C_24 
REMARK   11  A    between atoms: C_27  and  C_31 
REMARK   12  A    between atoms: C_29  and  C_32 
ROOT
HETATM    1  C   UNK     0       6.866   4.169 -13.926  0.00  0.00    -0.039 A 
HETATM    2  C   UNK     0       5.572   4.643 -14.142  0.00  0.00     0.019 A 
HETATM    3  C   UNK     0       7.495   4.392 -12.702  0.00  0.00     0.010 A 
HETATM    4  C   UNK     0       4.907   5.341 -13.133  0.00  0.00    -0.023 A 
HETATM    5  C   UNK     0       5.536   5.562 -11.908  0.00  0.00    -0.016 A 
HETATM    6  C   UNK     0       6.830   5.089 -11.692  0.00  0.00     0.013 A 
ENDROOT
BRANCH   5   7
HETATM    7  C   UNK     0       4.866   6.282 -10.843  0.00  0.00    -0.002 A 
HETATM    8  C   UNK     0       4.163   5.613  -9.840  0.00  0.00     0.090 A 
HETATM    9  C   UNK     0       3.532   6.338  -8.830  0.00  0.00     0.026 A 
HETATM   10  C   UNK     0       3.602   7.731  -8.821  0.00  0.00     0.002 A 
HETATM   11  C   UNK     0       4.304   8.400  -9.824  0.00  0.00     0.001 A 
HETATM   12  C   UNK     0       4.936   7.675 -10.834  0.00  0.00     0.014 A 
BRANCH   8  13
HETATM   13  S   UNK     0       4.045   3.864  -9.803  0.00  0.00     0.265 S 
HETATM   14  O   UNK     0       5.350   3.320 -10.147  0.00  0.00    -0.200 OA
HETATM   15  O   UNK     0       3.412   3.487  -8.548  0.00  0.00    -0.200 OA
BRANCH  13  16
HETATM   16  N   UNK     0       2.962   3.581 -11.089  0.00  0.00    -0.264 N 
HETATM   17  H   UNK     0       2.793   4.346 -11.755  0.00  0.00     0.180 HD
BRANCH  16  18
HETATM   18  C   UNK     0       2.429   2.318 -11.439  0.00  0.00     0.143 A 
HETATM   19  N   UNK     0       1.719   1.574 -10.585  0.00  0.00    -0.244 N 
HETATM   20  O   UNK     0       1.386   0.427 -11.295  0.00  0.00    -0.240 OA
HETATM   21  HN  UNK     0       1.474   1.800  -9.620  1.00  0.00     0.196 HD
HETATM   22  C   UNK     0       1.903   0.512 -12.548  0.00  0.00     0.082 A 
HETATM   23  C   UNK     0       2.576   1.697 -12.690  0.00  0.00     0.016 A 
HETATM   24  C   UNK     0       1.645  -0.628 -13.437  0.00  0.00     0.079 C 
HETATM   25  C   UNK     0       3.285   2.191 -13.883  0.00  0.00     0.055 C 
ENDBRANCH  16  18
ENDBRANCH  13  16
ENDBRANCH   8  13
ENDBRANCH   5   7
BRANCH   4  26
HETATM   26  C   UNK     0       3.520   5.832 -13.400  0.00  0.00     0.207 C 
BRANCH  26  27
HETATM   27  O   UNK     0       3.290   5.847 -14.801  0.00  0.00    -0.387 OA
BRANCH  27  28
HETATM   28  C   UNK     0       2.665   7.055 -15.214  0.00  0.00     0.163 C 
HETATM   29  C   UNK     0       2.393   6.986 -16.702  0.00  0.00     0.033 C 
ENDBRANCH  27  28
ENDBRANCH  26  27
ENDBRANCH   4  26
BRANCH   1  30
HETATM   30  C   UNK     0       7.582   3.420 -15.012  0.00  0.00     0.172 C 
BRANCH  30  31
HETATM   31  N   UNK     0       7.089   2.060 -15.151  0.00  0.00    -0.301 N 
HETATM   32  C   UNK     0       7.292   1.063 -14.236  0.00  0.00     0.254 A 
HETATM   33  O   UNK     0       7.901   1.106 -13.179  0.00  0.00    -0.270 OA
HETATM   34  C   UNK     0       6.599  -0.161 -14.804  0.00  0.00     0.113 A 
HETATM   35  N   UNK     0       6.034   0.308 -16.090  0.00  0.00    -0.362 N 
HETATM   36  C   UNK     0       5.487  -0.685 -13.889  0.00  0.00     0.041 C 
HETATM   37  C   UNK     0       7.567  -1.324 -15.044  0.00  0.00     0.041 C 
HETATM   38  C   UNK     0       6.371   1.557 -16.172  0.00  0.00     0.083 A 
HETATM   39  HN  UNK     0       5.495  -0.235 -16.765  1.00  0.00     0.162 HD
HETATM   40  C   UNK     0       5.686  -2.196 -13.860  0.00  0.00     0.003 C 
HETATM   41  C   UNK     0       7.189  -2.362 -13.994  0.00  0.00     0.003 C 
BRANCH  38  42
HETATM   42  C   UNK     0       5.988   2.412 -17.337  0.00  0.00     0.076 C 
BRANCH  42  43
HETATM   43  C   UNK     0       4.472   2.536 -17.446  0.00  0.00     0.007 C 
BRANCH  43  44
HETATM   44  C   UNK     0       4.005   3.992 -17.513  0.00  0.00    -0.004 C 
HETATM   45  C   UNK     0       4.933   4.834 -18.374  0.00  0.00     0.005 C 
ENDBRANCH  43  44
ENDBRANCH  42  43
ENDBRANCH  38  42
ENDBRANCH  30  31
ENDBRANCH   1  30
TORSDOF 12
ENDMDL
MODEL 7
REMARK VINA RESULT:      -9.0     32.333     35.387
REMARK  12 active torsions:
REMARK  status: ('A' for Active; 'I' for Inactive)
REMARK    1  A    between atoms: S_1  and  N_10 
REMARK    2  A    between atoms: S_1  and  C_33 
REMARK    3  A    between atoms: O_3  and  C_31 
REMARK    4  A    between atoms: O_3  and  C_37 
REMARK    5  A    between atoms: N_9  and  C_21 
REMARK    6  A    between atoms: N_10  and  C_40 
REMARK    7  A    between atoms: C_19  and  C_20 
REMARK    8  A    between atoms: C_20  and  C_22 
REMARK    9  A    between atoms: C_21  and  C_23 
REMARK   10  A    between atoms: C_22  and  C_24 
REMARK   11  A    between atoms: C_27  and  C_31 
REMARK   12  A    between atoms: C_29  and  C_32 
ROOT
HETATM    1  C   UNK     0     -19.713   5.481  14.343  0.00  0.00    -0.039 A 
HETATM    2  C   UNK     0     -18.841   4.863  13.447  0.00  0.00     0.019 A 
HETATM    3  C   UNK     0     -20.976   4.937  14.576  0.00  0.00     0.010 A 
HETATM    4  C   UNK     0     -19.232   3.700  12.783  0.00  0.00    -0.023 A 
HETATM    5  C   UNK     0     -20.495   3.156  13.016  0.00  0.00    -0.016 A 
HETATM    6  C   UNK     0     -21.367   3.772  13.912  0.00  0.00     0.013 A 
ENDROOT
BRANCH   5   7
HETATM    7  C   UNK     0     -20.924   1.947  12.340  0.00  0.00    -0.002 A 
HETATM    8  C   UNK     0     -20.945   0.714  12.994  0.00  0.00     0.090 A 
HETATM    9  C   UNK     0     -21.365  -0.428  12.312  0.00  0.00     0.026 A 
HETATM   10  C   UNK     0     -21.764  -0.339  10.979  0.00  0.00     0.002 A 
HETATM   11  C   UNK     0     -21.742   0.893  10.325  0.00  0.00     0.001 A 
HETATM   12  C   UNK     0     -21.322   2.036  11.006  0.00  0.00     0.014 A 
BRANCH   8  13
HETATM   13  S   UNK     0     -20.456   0.546  14.668  0.00  0.00     0.265 S 
HETATM   14  O   UNK     0     -19.102   1.065  14.794  0.00  0.00    -0.200 OA
HETATM   15  O   UNK     0     -21.519   1.091  15.500  0.00  0.00    -0.200 OA
BRANCH  13  16
HETATM   16  N   UNK     0     -20.424  -1.151  14.833  0.00  0.00    -0.264 N 
HETATM   17  H   UNK     0     -21.118  -1.699  14.309  0.00  0.00     0.180 HD
BRANCH  16  18
HETATM   18  C   UNK     0     -19.395  -1.886  15.468  0.00  0.00     0.143 A 
HETATM   19  N   UNK     0     -18.669  -2.808  14.829  0.00  0.00    -0.244 N 
HETATM   20  O   UNK     0     -17.783  -3.294  15.784  0.00  0.00    -0.240 OA
HETATM   21  HN  UNK     0     -18.747  -3.093  13.853  1.00  0.00     0.196 HD
HETATM   22  C   UNK     0     -18.001  -2.655  16.962  0.00  0.00     0.082 A 
HETATM   23  C   UNK     0     -19.018  -1.749  16.815  0.00  0.00     0.016 A 
HETATM   24  C   UNK     0     -17.146  -3.055  18.087  0.00  0.00     0.079 C 
HETATM   25  C   UNK     0     -19.575  -0.848  17.837  0.00  0.00     0.055 C 
ENDBRANCH  16  18
ENDBRANCH  13  16
ENDBRANCH   8  13
ENDBRANCH   5   7
BRANCH   4  26
HETATM   26  C   UNK     0     -18.270   3.065  11.831  0.00  0.00     0.207 C 
BRANCH  26  27
HETATM   27  O   UNK     0     -17.612   1.987  12.480  0.00  0.00    -0.387 OA
BRANCH  27  28
HETATM   28  C   UNK     0     -17.170   1.008  11.549  0.00  0.00     0.163 C 
HETATM   29  C   UNK     0     -17.632  -0.358  12.011  0.00  0.00     0.033 C 
ENDBRANCH  27  28
ENDBRANCH  26  27
ENDBRANCH   4  26
BRANCH   1  30
HETATM   30  C   UNK     0     -19.293   6.733  15.058  0.00  0.00     0.172 C 
BRANCH  30  31
HETATM   31  N   UNK     0     -17.944   6.630  15.586  0.00  0.00    -0.301 N 
HETATM   32  C   UNK     0     -16.847   7.239  15.040  0.00  0.00     0.254 A 
HETATM   33  O   UNK     0     -16.780   7.949  14.048  0.00  0.00    -0.270 OA
HETATM   34  C   UNK     0     -15.679   6.850  15.925  0.00  0.00     0.113 A 
HETATM   35  N   UNK     0     -16.285   5.983  16.963  0.00  0.00    -0.362 N 
HETATM   36  C   UNK     0     -14.999   8.061  16.570  0.00  0.00     0.041 C 
HETATM   37  C   UNK     0     -14.595   6.081  15.161  0.00  0.00     0.041 C 
HETATM   38  C   UNK     0     -17.547   5.936  16.669  0.00  0.00     0.083 A 
HETATM   39  HN  UNK     0     -15.811   5.523  17.740  1.00  0.00     0.162 HD
HETATM   40  C   UNK     0     -13.505   7.806  16.401  0.00  0.00     0.003 C 
HETATM   41  C   UNK     0     -13.418   7.046  15.089  0.00  0.00     0.003 C 
BRANCH  38  42
HETATM   42  C   UNK     0     -18.527   5.157  17.485  0.00  0.00     0.076 C 
BRANCH  42  43
HETATM   43  C   UNK     0     -18.359   3.659  17.254  0.00  0.00     0.007 C 
BRANCH  43  44
HETATM   44  C   UNK     0     -19.632   2.870  17.566  0.00  0.00    -0.004 C 
HETATM   45  C   UNK     0     -20.796   3.795  17.883  0.00  0.00     0.005 C 
ENDBRANCH  43  44
ENDBRANCH  42  43
ENDBRANCH  38  42
ENDBRANCH  30  31
ENDBRANCH   1  30
TORSDOF 12
ENDMDL
MODEL 8
REMARK VINA RESULT:      -9.0     33.639     36.822
REMARK  12 active torsions:
REMARK  status: ('A' for Active; 'I' for Inactive)
REMARK    1  A    between atoms: S_1  and  N_10 
REMARK    2  A    between atoms: S_1  and  C_33 
REMARK    3  A    between atoms: O_3  and  C_31 
REMARK    4  A    between atoms: O_3  and  C_37 
REMARK    5  A    between atoms: N_9  and  C_21 
REMARK    6  A    between atoms: N_10  and  C_40 
REMARK    7  A    between atoms: C_19  and  C_20 
REMARK    8  A    between atoms: C_20  and  C_22 
REMARK    9  A    between atoms: C_21  and  C_23 
REMARK   10  A    between atoms: C_22  and  C_24 
REMARK   11  A    between atoms: C_27  and  C_31 
REMARK   12  A    between atoms: C_29  and  C_32 
ROOT
HETATM    1  C   UNK     0     -19.339  -0.979  15.827  0.00  0.00    -0.039 A 
HETATM    2  C   UNK     0     -19.864  -0.439  14.653  0.00  0.00     0.019 A 
HETATM    3  C   UNK     0     -19.237  -0.191  16.973  0.00  0.00     0.010 A 
HETATM    4  C   UNK     0     -20.288   0.890  14.625  0.00  0.00    -0.023 A 
HETATM    5  C   UNK     0     -20.187   1.677  15.772  0.00  0.00    -0.016 A 
HETATM    6  C   UNK     0     -19.663   1.138  16.946  0.00  0.00     0.013 A 
ENDROOT
BRANCH   5   7
HETATM    7  C   UNK     0     -20.623   3.060  15.769  0.00  0.00    -0.002 A 
HETATM    8  C   UNK     0     -19.718   4.110  15.609  0.00  0.00     0.090 A 
HETATM    9  C   UNK     0     -20.173   5.428  15.610  0.00  0.00     0.026 A 
HETATM   10  C   UNK     0     -21.532   5.698  15.771  0.00  0.00     0.002 A 
HETATM   11  C   UNK     0     -22.437   4.649  15.932  0.00  0.00     0.001 A 
HETATM   12  C   UNK     0     -21.982   3.330  15.930  0.00  0.00     0.014 A 
BRANCH   8  13
HETATM   13  S   UNK     0     -18.000   3.827  15.401  0.00  0.00     0.265 S 
HETATM   14  O   UNK     0     -17.432   3.542  16.710  0.00  0.00    -0.200 OA
HETATM   15  O   UNK     0     -17.834   2.871  14.316  0.00  0.00    -0.200 OA
BRANCH  13  16
HETATM   16  N   UNK     0     -17.475   5.365  14.884  0.00  0.00    -0.264 N 
HETATM   17  H   UNK     0     -18.042   5.857  14.183  0.00  0.00     0.180 HD
BRANCH  16  18
HETATM   18  C   UNK     0     -16.435   6.112  15.486  0.00  0.00     0.143 A 
HETATM   19  N   UNK     0     -15.191   5.641  15.615  0.00  0.00    -0.244 N 
HETATM   20  O   UNK     0     -14.484   6.657  16.248  0.00  0.00    -0.240 OA
HETATM   21  HN  UNK     0     -14.837   4.733  15.313  1.00  0.00     0.196 HD
HETATM   22  C   UNK     0     -15.318   7.703  16.481  0.00  0.00     0.082 A 
HETATM   23  C   UNK     0     -16.572   7.407  16.015  0.00  0.00     0.016 A 
HETATM   24  C   UNK     0     -14.728   8.869  17.152  0.00  0.00     0.079 C 
HETATM   25  C   UNK     0     -17.774   8.256  16.064  0.00  0.00     0.055 C 
ENDBRANCH  16  18
ENDBRANCH  13  16
ENDBRANCH   8  13
ENDBRANCH   5   7
BRANCH   4  26
HETATM   26  C   UNK     0     -20.847   1.433  13.350  0.00  0.00     0.207 C 
BRANCH  26  27
HETATM   27  O   UNK     0     -19.852   1.372  12.338  0.00  0.00    -0.387 OA
BRANCH  27  28
HETATM   28  C   UNK     0     -19.906   2.507  11.483  0.00  0.00     0.163 C 
HETATM   29  C   UNK     0     -20.821   3.544  12.099  0.00  0.00     0.033 C 
ENDBRANCH  27  28
ENDBRANCH  26  27
ENDBRANCH   4  26
BRANCH   1  30
HETATM   30  C   UNK     0     -18.881  -2.409  15.858  0.00  0.00     0.172 C 
BRANCH  30  31
HETATM   31  N   UNK     0     -18.653  -2.877  17.214  0.00  0.00    -0.301 N 
HETATM   32  C   UNK     0     -17.487  -2.707  17.909  0.00  0.00     0.254 A 
HETATM   33  O   UNK     0     -16.455  -2.162  17.551  0.00  0.00    -0.270 OA
HETATM   34  C   UNK     0     -17.719  -3.352  19.262  0.00  0.00     0.113 A 
HETATM   35  N   UNK     0     -19.104  -3.870  19.183  0.00  0.00    -0.362 N 
HETATM   36  C   UNK     0     -17.584  -2.358  20.420  0.00  0.00     0.041 C 
HETATM   37  C   UNK     0     -16.741  -4.499  19.540  0.00  0.00     0.041 C 
HETATM   38  C   UNK     0     -19.520  -3.545  17.998  0.00  0.00     0.083 A 
HETATM   39  HN  UNK     0     -19.620  -4.373  19.905  1.00  0.00     0.162 HD
HETATM   40  C   UNK     0     -16.751  -3.089  21.467  0.00  0.00     0.003 C 
HETATM   41  C   UNK     0     -15.830  -3.969  20.641  0.00  0.00     0.003 C 
BRANCH  38  42
HETATM   42  C   UNK     0     -20.891  -3.886  17.513  0.00  0.00     0.076 C 
BRANCH  42  43
HETATM   43  C   UNK     0     -21.897  -2.818  17.927  0.00  0.00     0.007 C 
BRANCH  43  44
HETATM   44  C   UNK     0     -22.659  -2.234  16.735  0.00  0.00    -0.004 C 
HETATM   45  C   UNK     0     -22.959  -0.757  16.936  0.00  0.00     0.005 C 
ENDBRANCH  43  44
ENDBRANCH  42  43
ENDBRANCH  38  42
ENDBRANCH  30  31
ENDBRANCH   1  30
TORSDOF 12
ENDMDL
MODEL 9
REMARK VINA RESULT:      -8.9     32.738     35.842
REMARK  12 active torsions:
REMARK  status: ('A' for Active; 'I' for Inactive)
REMARK    1  A    between atoms: S_1  and  N_10 
REMARK    2  A    between atoms: S_1  and  C_33 
REMARK    3  A    between atoms: O_3  and  C_31 
REMARK    4  A    between atoms: O_3  and  C_37 
REMARK    5  A    between atoms: N_9  and  C_21 
REMARK    6  A    between atoms: N_10  and  C_40 
REMARK    7  A    between atoms: C_19  and  C_20 
REMARK    8  A    between atoms: C_20  and  C_22 
REMARK    9  A    between atoms: C_21  and  C_23 
REMARK   10  A    between atoms: C_22  and  C_24 
REMARK   11  A    between atoms: C_27  and  C_31 
REMARK   12  A    between atoms: C_29  and  C_32 
ROOT
HETATM    1  C   UNK     0     -19.559   5.774  14.641  0.00  0.00    -0.039 A 
HETATM    2  C   UNK     0     -20.910   5.431  14.586  0.00  0.00     0.019 A 
HETATM    3  C   UNK     0     -18.606   4.956  14.034  0.00  0.00     0.010 A 
HETATM    4  C   UNK     0     -21.308   4.270  13.923  0.00  0.00    -0.023 A 
HETATM    5  C   UNK     0     -20.355   3.453  13.316  0.00  0.00    -0.016 A 
HETATM    6  C   UNK     0     -19.005   3.795  13.370  0.00  0.00     0.013 A 
ENDROOT
BRANCH   5   7
HETATM    7  C   UNK     0     -20.744   2.242  12.619  0.00  0.00    -0.002 A 
HETATM    8  C   UNK     0     -20.768   1.005  13.264  0.00  0.00     0.090 A 
HETATM    9  C   UNK     0     -21.149  -0.139  12.562  0.00  0.00     0.026 A 
HETATM   10  C   UNK     0     -21.505  -0.047  11.217  0.00  0.00     0.002 A 
HETATM   11  C   UNK     0     -21.479   1.190  10.572  0.00  0.00     0.001 A 
HETATM   12  C   UNK     0     -21.100   2.334  11.273  0.00  0.00     0.014 A 
BRANCH   8  13
HETATM   13  S   UNK     0     -20.333   0.834  14.953  0.00  0.00     0.265 S 
HETATM   14  O   UNK     0     -18.927   1.186  15.091  0.00  0.00    -0.200 OA
HETATM   15  O   UNK     0     -21.334   1.533  15.745  0.00  0.00    -0.200 OA
BRANCH  13  16
HETATM   16  N   UNK     0     -20.515  -0.848  15.170  0.00  0.00    -0.264 N 
HETATM   17  H   UNK     0     -21.378  -1.287  14.827  0.00  0.00     0.180 HD
BRANCH  16  18
HETATM   18  C   UNK     0     -19.491  -1.726  15.599  0.00  0.00     0.143 A 
HETATM   19  N   UNK     0     -18.886  -2.585  14.773  0.00  0.00    -0.244 N 
HETATM   20  O   UNK     0     -17.962  -3.256  15.564  0.00  0.00    -0.240 OA
HETATM   21  HN  UNK     0     -19.064  -2.718  13.777  1.00  0.00     0.196 HD
HETATM   22  C   UNK     0     -18.037  -2.786  16.836  0.00  0.00     0.082 A 
HETATM   23  C   UNK     0     -18.996  -1.811  16.911  0.00  0.00     0.016 A 
HETATM   24  C   UNK     0     -17.123  -3.395  17.811  0.00  0.00     0.079 C 
HETATM   25  C   UNK     0     -19.403  -1.038  18.097  0.00  0.00     0.055 C 
ENDBRANCH  16  18
ENDBRANCH  13  16
ENDBRANCH   8  13
ENDBRANCH   5   7
BRANCH   4  26
HETATM   26  C   UNK     0     -22.765   3.936  13.882  0.00  0.00     0.207 C 
BRANCH  26  27
HETATM   27  O   UNK     0     -23.395   4.710  12.871  0.00  0.00    -0.387 OA
BRANCH  27  28
HETATM   28  C   UNK     0     -24.290   3.924  12.095  0.00  0.00     0.163 C 
HETATM   29  C   UNK     0     -24.499   2.591  12.782  0.00  0.00     0.033 C 
ENDBRANCH  27  28
ENDBRANCH  26  27
ENDBRANCH   4  26
BRANCH   1  30
HETATM   30  C   UNK     0     -19.129   7.023  15.355  0.00  0.00     0.172 C 
BRANCH  30  31
HETATM   31  N   UNK     0     -17.757   6.937  15.823  0.00  0.00    -0.301 N 
HETATM   32  C   UNK     0     -16.667   7.375  15.120  0.00  0.00     0.254 A 
HETATM   33  O   UNK     0     -16.626   7.893  14.016  0.00  0.00    -0.270 OA
HETATM   34  C   UNK     0     -15.467   7.080  16.000  0.00  0.00     0.113 A 
HETATM   35  N   UNK     0     -16.049   6.447  17.206  0.00  0.00    -0.362 N 
HETATM   36  C   UNK     0     -14.691   8.345  16.381  0.00  0.00     0.041 C 
HETATM   37  C   UNK     0     -14.471   6.127  15.331  0.00  0.00     0.041 C 
HETATM   38  C   UNK     0     -17.328   6.423  16.991  0.00  0.00     0.083 A 
HETATM   39  HN  UNK     0     -15.552   6.104  18.028  1.00  0.00     0.162 HD
HETATM   40  C   UNK     0     -13.225   7.976  16.184  0.00  0.00     0.003 C 
HETATM   41  C   UNK     0     -13.254   6.994  15.027  0.00  0.00     0.003 C 
BRANCH  38  42
HETATM   42  C   UNK     0     -18.293   5.857  17.982  0.00  0.00     0.076 C 
BRANCH  42  43
HETATM   43  C   UNK     0     -18.031   4.373  18.212  0.00  0.00     0.007 C 
BRANCH  43  44
HETATM   44  C   UNK     0     -19.105   3.483  17.582  0.00  0.00    -0.004 C 
HETATM   45  C   UNK     0     -20.503   3.959  17.942  0.00  0.00     0.005 C 
ENDBRANCH  43  44
ENDBRANCH  42  43
ENDBRANCH  38  42
ENDBRANCH  30  31
ENDBRANCH   1  30
TORSDOF 12
ENDMDL
MODEL 10
REMARK VINA RESULT:      -8.9     32.559     36.058
REMARK  12 active torsions:
REMARK  status: ('A' for Active; 'I' for Inactive)
REMARK    1  A    between atoms: S_1  and  N_10 
REMARK    2  A    between atoms: S_1  and  C_33 
REMARK    3  A    between atoms: O_3  and  C_31 
REMARK    4  A    between atoms: O_3  and  C_37 
REMARK    5  A    between atoms: N_9  and  C_21 
REMARK    6  A    between atoms: N_10  and  C_40 
REMARK    7  A    between atoms: C_19  and  C_20 
REMARK    8  A    between atoms: C_20  and  C_22 
REMARK    9  A    between atoms: C_21  and  C_23 
REMARK   10  A    between atoms: C_22  and  C_24 
REMARK   11  A    between atoms: C_27  and  C_31 
REMARK   12  A    between atoms: C_29  and  C_32 
ROOT
HETATM    1  C   UNK     0     -18.684   5.643  15.239  0.00  0.00    -0.039 A 
HETATM    2  C   UNK     0     -19.972   5.263  14.863  0.00  0.00     0.019 A 
HETATM    3  C   UNK     0     -17.641   4.719  15.187  0.00  0.00     0.010 A 
HETATM    4  C   UNK     0     -20.217   3.958  14.434  0.00  0.00    -0.023 A 
HETATM    5  C   UNK     0     -19.174   3.035  14.382  0.00  0.00    -0.016 A 
HETATM    6  C   UNK     0     -17.886   3.414  14.757  0.00  0.00     0.013 A 
ENDROOT
BRANCH   5   7
HETATM    7  C   UNK     0     -19.402   1.673  13.938  0.00  0.00    -0.002 A 
HETATM    8  C   UNK     0     -19.729   0.658  14.837  0.00  0.00     0.090 A 
HETATM    9  C   UNK     0     -19.943  -0.640  14.375  0.00  0.00     0.026 A 
HETATM   10  C   UNK     0     -19.830  -0.924  13.014  0.00  0.00     0.002 A 
HETATM   11  C   UNK     0     -19.503   0.091  12.115  0.00  0.00     0.001 A 
HETATM   12  C   UNK     0     -19.289   1.389  12.577  0.00  0.00     0.014 A 
BRANCH   8  13
HETATM   13  S   UNK     0     -19.884   0.960  16.557  0.00  0.00     0.265 S 
HETATM   14  O   UNK     0     -18.638   1.549  17.023  0.00  0.00    -0.200 OA
HETATM   15  O   UNK     0     -21.141   1.662  16.775  0.00  0.00    -0.200 OA
BRANCH  13  16
HETATM   16  N   UNK     0     -20.015  -0.630  17.159  0.00  0.00    -0.264 N 
HETATM   17  H   UNK     0     -20.817  -1.196  16.857  0.00  0.00     0.180 HD
BRANCH  16  18
HETATM   18  C   UNK     0     -19.004  -1.310  17.880  0.00  0.00     0.143 A 
HETATM   19  N   UNK     0     -17.757  -1.444  17.419  0.00  0.00    -0.244 N 
HETATM   20  O   UNK     0     -17.085  -2.163  18.400  0.00  0.00    -0.240 OA
HETATM   21  HN  UNK     0     -17.380  -1.095  16.538  1.00  0.00     0.196 HD
HETATM   22  C   UNK     0     -17.942  -2.440  19.417  0.00  0.00     0.082 A 
HETATM   23  C   UNK     0     -19.177  -1.919  19.134  0.00  0.00     0.016 A 
HETATM   24  C   UNK     0     -17.390  -3.203  20.544  0.00  0.00     0.079 C 
HETATM   25  C   UNK     0     -20.393  -1.988  19.962  0.00  0.00     0.055 C 
ENDBRANCH  16  18
ENDBRANCH  13  16
ENDBRANCH   8  13
ENDBRANCH   5   7
BRANCH   4  26
HETATM   26  C   UNK     0     -21.610   3.588  14.037  0.00  0.00     0.207 C 
BRANCH  26  27
HETATM   27  O   UNK     0     -21.835   3.986  12.692  0.00  0.00    -0.387 OA
BRANCH  27  28
HETATM   28  C   UNK     0     -22.592   3.015  11.980  0.00  0.00     0.163 C 
HETATM   29  C   UNK     0     -22.986   1.904  12.930  0.00  0.00     0.033 C 
ENDBRANCH  27  28
ENDBRANCH  26  27
ENDBRANCH   4  26
BRANCH   1  30
HETATM   30  C   UNK     0     -18.420   7.047  15.701  0.00  0.00     0.172 C 
BRANCH  30  31
HETATM   31  N   UNK     0     -17.042   7.230  16.123  0.00  0.00    -0.301 N 
HETATM   32  C   UNK     0     -16.004   7.526  15.282  0.00  0.00     0.254 A 
HETATM   33  O   UNK     0     -16.021   7.683  14.071  0.00  0.00    -0.270 OA
HETATM   34  C   UNK     0     -14.775   7.622  16.165  0.00  0.00     0.113 A 
HETATM   35  N   UNK     0     -15.286   7.340  17.527  0.00  0.00    -0.362 N 
HETATM   36  C   UNK     0     -14.120   9.006  16.115  0.00  0.00     0.041 C 
HETATM   37  C   UNK     0     -13.697   6.602  15.783  0.00  0.00     0.041 C 
HETATM   38  C   UNK     0     -16.558   7.138  17.376  0.00  0.00     0.083 A 
HETATM   39  HN  UNK     0     -14.752   7.311  18.395  1.00  0.00     0.162 HD
HETATM   40  C   UNK     0     -12.627   8.726  15.987  0.00  0.00     0.003 C 
HETATM   41  C   UNK     0     -12.571   7.438  15.186  0.00  0.00     0.003 C 
BRANCH  38  42
HETATM   42  C   UNK     0     -17.457   6.821  18.526  0.00  0.00     0.076 C 
BRANCH  42  43
HETATM   43  C   UNK     0     -17.410   5.334  18.860  0.00  0.00     0.007 C 
BRANCH  43  44
HETATM   44  C   UNK     0     -18.692   4.844  19.539  0.00  0.00    -0.004 C 
HETATM   45  C   UNK     0     -19.742   4.440  18.516  0.00  0.00     0.005 C 
ENDBRANCH  43  44
ENDBRANCH  42  43
ENDBRANCH  38  42
ENDBRANCH  30  31
ENDBRANCH   1  30
TORSDOF 12
ENDMDL
MODEL 11
REMARK VINA RESULT:      -8.9      2.937      7.757
REMARK  12 active torsions:
REMARK  status: ('A' for Active; 'I' for Inactive)
REMARK    1  A    between atoms: S_1  and  N_10 
REMARK    2  A    between atoms: S_1  and  C_33 
REMARK    3  A    between atoms: O_3  and  C_31 
REMARK    4  A    between atoms: O_3  and  C_37 
REMARK    5  A    between atoms: N_9  and  C_21 
REMARK    6  A    between atoms: N_10  and  C_40 
REMARK    7  A    between atoms: C_19  and  C_20 
REMARK    8  A    between atoms: C_20  and  C_22 
REMARK    9  A    between atoms: C_21  and  C_23 
REMARK   10  A    between atoms: C_22  and  C_24 
REMARK   11  A    between atoms: C_27  and  C_31 
REMARK   12  A    between atoms: C_29  and  C_32 
ROOT
HETATM    1  C   UNK     0       4.147   4.204 -12.812  0.00  0.00    -0.039 A 
HETATM    2  C   UNK     0       4.391   4.686 -14.098  0.00  0.00     0.019 A 
HETATM    3  C   UNK     0       4.787   3.047 -12.368  0.00  0.00     0.010 A 
HETATM    4  C   UNK     0       5.274   4.011 -14.940  0.00  0.00    -0.023 A 
HETATM    5  C   UNK     0       5.914   2.854 -14.496  0.00  0.00    -0.016 A 
HETATM    6  C   UNK     0       5.671   2.372 -13.211  0.00  0.00     0.013 A 
ENDROOT
BRANCH   5   7
HETATM    7  C   UNK     0       6.839   2.136 -15.351  0.00  0.00    -0.002 A 
HETATM    8  C   UNK     0       6.395   1.175 -16.260  0.00  0.00     0.090 A 
HETATM    9  C   UNK     0       7.313   0.504 -17.068  0.00  0.00     0.026 A 
HETATM   10  C   UNK     0       8.673   0.793 -16.968  0.00  0.00     0.002 A 
HETATM   11  C   UNK     0       9.117   1.753 -16.059  0.00  0.00     0.001 A 
HETATM   12  C   UNK     0       8.200   2.425 -15.251  0.00  0.00     0.014 A 
BRANCH   8  13
HETATM   13  S   UNK     0       4.697   0.774 -16.427  0.00  0.00     0.265 S 
HETATM   14  O   UNK     0       4.001   1.960 -16.904  0.00  0.00    -0.200 OA
HETATM   15  O   UNK     0       4.603  -0.469 -17.178  0.00  0.00    -0.200 OA
BRANCH  13  16
HETATM   16  N   UNK     0       4.266   0.486 -14.802  0.00  0.00    -0.264 N 
HETATM   17  H   UNK     0       3.919   1.278 -14.248  0.00  0.00     0.180 HD
BRANCH  16  18
HETATM   18  C   UNK     0       4.151  -0.793 -14.208  0.00  0.00     0.143 A 
HETATM   19  N   UNK     0       2.986  -1.441 -14.113  0.00  0.00    -0.244 N 
HETATM   20  O   UNK     0       3.290  -2.638 -13.476  0.00  0.00    -0.240 OA
HETATM   21  HN  UNK     0       2.071  -1.125 -14.437  1.00  0.00     0.196 HD
HETATM   22  C   UNK     0       4.620  -2.676 -13.207  0.00  0.00     0.082 A 
HETATM   23  C   UNK     0       5.214  -1.525 -13.653  0.00  0.00     0.016 A 
HETATM   24  C   UNK     0       5.113  -3.881 -12.527  0.00  0.00     0.079 C 
HETATM   25  C   UNK     0       6.637  -1.154 -13.565  0.00  0.00     0.055 C 
ENDBRANCH  16  18
ENDBRANCH  13  16
ENDBRANCH   8  13
ENDBRANCH   5   7
BRANCH   4  26
HETATM   26  C   UNK     0       5.512   4.559 -16.311  0.00  0.00     0.207 C 
BRANCH  26  27
HETATM   27  O   UNK     0       4.647   5.664 -16.531  0.00  0.00    -0.387 OA
BRANCH  27  28
HETATM   28  C   UNK     0       4.247   5.750 -17.892  0.00  0.00     0.163 C 
HETATM   29  C   UNK     0       5.063   4.772 -18.710  0.00  0.00     0.033 C 
ENDBRANCH  27  28
ENDBRANCH  26  27
ENDBRANCH   4  26
BRANCH   1  30
HETATM   30  C   UNK     0       3.196   4.929 -11.905  0.00  0.00     0.172 C 
BRANCH  30  31
HETATM   31  N   UNK     0       3.270   4.443 -10.538  0.00  0.00    -0.301 N 
HETATM   32  C   UNK     0       2.585   3.359 -10.061  0.00  0.00     0.254 A 
HETATM   33  O   UNK     0       1.810   2.622 -10.651  0.00  0.00    -0.270 OA
HETATM   34  C   UNK     0       2.977   3.238  -8.601  0.00  0.00     0.113 A 
HETATM   35  N   UNK     0       3.915   4.363  -8.383  0.00  0.00    -0.362 N 
HETATM   36  C   UNK     0       3.658   1.903  -8.283  0.00  0.00     0.041 C 
HETATM   37  C   UNK     0       1.774   3.362  -7.659  0.00  0.00     0.041 C 
HETATM   38  C   UNK     0       3.999   4.960  -9.531  0.00  0.00     0.083 A 
HETATM   39  HN  UNK     0       4.392   4.614  -7.517  1.00  0.00     0.162 HD
HETATM   40  C   UNK     0       3.008   1.432  -6.987  0.00  0.00     0.003 C 
HETATM   41  C   UNK     0       1.589   1.962  -7.085  0.00  0.00     0.003 C 
BRANCH  38  42
HETATM   42  C   UNK     0       4.859   6.163  -9.744  0.00  0.00     0.076 C 
BRANCH  42  43
HETATM   43  C   UNK     0       6.258   5.759 -10.198  0.00  0.00     0.007 C 
BRANCH  43  44
HETATM   44  C   UNK     0       6.674   6.446 -11.500  0.00  0.00    -0.004 C 
HETATM   45  C   UNK     0       7.546   5.538 -12.354  0.00  0.00     0.005 C 
ENDBRANCH  43  44
ENDBRANCH  42  43
ENDBRANCH  38  42
ENDBRANCH  30  31
ENDBRANCH   1  30
TORSDOF 12
ENDMDL
MODEL 12
REMARK VINA RESULT:      -8.8     32.445     35.984
REMARK  12 active torsions:
REMARK  status: ('A' for Active; 'I' for Inactive)
REMARK    1  A    between atoms: S_1  and  N_10 
REMARK    2  A    between atoms: S_1  and  C_33 
REMARK    3  A    between atoms: O_3  and  C_31 
REMARK    4  A    between atoms: O_3  and  C_37 
REMARK    5  A    between atoms: N_9  and  C_21 
REMARK    6  A    between atoms: N_10  and  C_40 
REMARK    7  A    between atoms: C_19  and  C_20 
REMARK    8  A    between atoms: C_20  and  C_22 
REMARK    9  A    between atoms: C_21  and  C_23 
REMARK   10  A    between atoms: C_22  and  C_24 
REMARK   11  A    between atoms: C_27  and  C_31 
REMARK   12  A    between atoms: C_29  and  C_32 
ROOT
HETATM    1  C   UNK     0     -19.211   6.199  15.698  0.00  0.00    -0.039 A 
HETATM    2  C   UNK     0     -18.429   5.312  14.958  0.00  0.00     0.019 A 
HETATM    3  C   UNK     0     -20.511   5.849  16.060  0.00  0.00     0.010 A 
HETATM    4  C   UNK     0     -18.949   4.073  14.580  0.00  0.00    -0.023 A 
HETATM    5  C   UNK     0     -20.249   3.723  14.943  0.00  0.00    -0.016 A 
HETATM    6  C   UNK     0     -21.031   4.610  15.682  0.00  0.00     0.013 A 
ENDROOT
BRANCH   5   7
HETATM    7  C   UNK     0     -20.812   2.441  14.564  0.00  0.00    -0.002 A 
HETATM    8  C   UNK     0     -20.749   1.338  15.415  0.00  0.00     0.090 A 
HETATM    9  C   UNK     0     -21.302   0.120  15.019  0.00  0.00     0.026 A 
HETATM   10  C   UNK     0     -21.917   0.006  13.772  0.00  0.00     0.002 A 
HETATM   11  C   UNK     0     -21.979   1.109  12.921  0.00  0.00     0.001 A 
HETATM   12  C   UNK     0     -21.427   2.327  13.318  0.00  0.00     0.014 A 
BRANCH   8  13
HETATM   13  S   UNK     0     -19.989   1.427  16.992  0.00  0.00     0.265 S 
HETATM   14  O   UNK     0     -18.585   1.756  16.795  0.00  0.00    -0.200 OA
HETATM   15  O   UNK     0     -20.816   2.273  17.839  0.00  0.00    -0.200 OA
BRANCH  13  16
HETATM   16  N   UNK     0     -20.119  -0.192  17.512  0.00  0.00    -0.264 N 
HETATM   17  H   UNK     0     -21.056  -0.554  17.729  0.00  0.00     0.180 HD
BRANCH  16  18
HETATM   18  C   UNK     0     -19.072  -1.143  17.476  0.00  0.00     0.143 A 
HETATM   19  N   UNK     0     -17.798  -0.820  17.721  0.00  0.00    -0.244 N 
HETATM   20  O   UNK     0     -17.093  -2.010  17.586  0.00  0.00    -0.240 OA
HETATM   21  HN  UNK     0     -17.424   0.100  17.955  1.00  0.00     0.196 HD
HETATM   22  C   UNK     0     -17.957  -3.008  17.266  0.00  0.00     0.082 A 
HETATM   23  C   UNK     0     -19.229  -2.508  17.184  0.00  0.00     0.016 A 
HETATM   24  C   UNK     0     -17.371  -4.343  17.083  0.00  0.00     0.079 C 
HETATM   25  C   UNK     0     -20.465  -3.241  16.863  0.00  0.00     0.055 C 
ENDBRANCH  16  18
ENDBRANCH  13  16
ENDBRANCH   8  13
ENDBRANCH   5   7
BRANCH   4  26
HETATM   26  C   UNK     0     -18.082   3.147  13.789  0.00  0.00     0.207 C 
BRANCH  26  27
HETATM   27  O   UNK     0     -18.239   3.425  12.405  0.00  0.00    -0.387 OA
BRANCH  27  28
HETATM   28  C   UNK     0     -17.815   2.331  11.602  0.00  0.00     0.163 C 
HETATM   29  C   UNK     0     -18.196   1.037  12.291  0.00  0.00     0.033 C 
ENDBRANCH  27  28
ENDBRANCH  26  27
ENDBRANCH   4  26
BRANCH   1  30
HETATM   30  C   UNK     0     -18.652   7.533  16.104  0.00  0.00     0.172 C 
BRANCH  30  31
HETATM   31  N   UNK     0     -17.223   7.470  16.353  0.00  0.00    -0.301 N 
HETATM   32  C   UNK     0     -16.259   7.678  15.404  0.00  0.00     0.254 A 
HETATM   33  O   UNK     0     -16.395   7.939  14.219  0.00  0.00    -0.270 OA
HETATM   34  C   UNK     0     -14.934   7.512  16.123  0.00  0.00     0.113 A 
HETATM   35  N   UNK     0     -15.316   7.194  17.518  0.00  0.00    -0.362 N 
HETATM   36  C   UNK     0     -14.077   8.781  16.079  0.00  0.00     0.041 C 
HETATM   37  C   UNK     0     -14.086   6.379  15.535  0.00  0.00     0.041 C 
HETATM   38  C   UNK     0     -16.613   7.199  17.522  0.00  0.00     0.083 A 
HETATM   39  HN  UNK     0     -14.694   7.011  18.305  1.00  0.00     0.162 HD
HETATM   40  C   UNK     0     -12.673   8.293  15.737  0.00  0.00     0.003 C 
HETATM   41  C   UNK     0     -12.921   7.084  14.852  0.00  0.00     0.003 C 
BRANCH  38  42
HETATM   42  C   UNK     0     -17.408   6.923  18.758  0.00  0.00     0.076 C 
BRANCH  42  43
HETATM   43  C   UNK     0     -17.036   5.570  19.353  0.00  0.00     0.007 C 
BRANCH  43  44
HETATM   44  C   UNK     0     -17.994   4.456  18.922  0.00  0.00    -0.004 C 
HETATM   45  C   UNK     0     -19.424   4.760  19.340  0.00  0.00     0.005 C 
ENDBRANCH  43  44
ENDBRANCH  42  43
ENDBRANCH  38  42
ENDBRANCH  30  31
ENDBRANCH   1  30
TORSDOF 12
ENDMDL
MODEL 13
REMARK VINA RESULT:      -8.8      2.714      6.162
REMARK  12 active torsions:
REMARK  status: ('A' for Active; 'I' for Inactive)
REMARK    1  A    between atoms: S_1  and  N_10 
REMARK    2  A    between atoms: S_1  and  C_33 
REMARK    3  A    between atoms: O_3  and  C_31 
REMARK    4  A    between atoms: O_3  and  C_37 
REMARK    5  A    between atoms: N_9  and  C_21 
REMARK    6  A    between atoms: N_10  and  C_40 
REMARK    7  A    between atoms: C_19  and  C_20 
REMARK    8  A    between atoms: C_20  and  C_22 
REMARK    9  A    between atoms: C_21  and  C_23 
REMARK   10  A    between atoms: C_22  and  C_24 
REMARK   11  A    between atoms: C_27  and  C_31 
REMARK   12  A    between atoms: C_29  and  C_32 
ROOT
HETATM    1  C   UNK     0       6.210   1.597 -12.787  0.00  0.00    -0.039 A 
HETATM    2  C   UNK     0       5.138   1.377 -11.922  0.00  0.00     0.019 A 
HETATM    3  C   UNK     0       6.821   2.850 -12.836  0.00  0.00     0.010 A 
HETATM    4  C   UNK     0       4.677   2.410 -11.106  0.00  0.00    -0.023 A 
HETATM    5  C   UNK     0       5.288   3.663 -11.155  0.00  0.00    -0.016 A 
HETATM    6  C   UNK     0       6.360   3.884 -12.019  0.00  0.00     0.013 A 
ENDROOT
BRANCH   5   7
HETATM    7  C   UNK     0       4.829   4.753 -10.315  0.00  0.00    -0.002 A 
HETATM    8  C   UNK     0       3.888   5.677 -10.770  0.00  0.00     0.090 A 
HETATM    9  C   UNK     0       3.468   6.711  -9.934  0.00  0.00     0.026 A 
HETATM   10  C   UNK     0       3.989   6.823  -8.645  0.00  0.00     0.002 A 
HETATM   11  C   UNK     0       4.930   5.899  -8.191  0.00  0.00     0.001 A 
HETATM   12  C   UNK     0       5.350   4.864  -9.026  0.00  0.00     0.014 A 
BRANCH   8  13
HETATM   13  S   UNK     0       3.201   5.582 -12.380  0.00  0.00     0.265 S 
HETATM   14  O   UNK     0       3.032   4.176 -12.713  0.00  0.00    -0.200 OA
HETATM   15  O   UNK     0       2.056   6.479 -12.430  0.00  0.00    -0.200 OA
BRANCH  13  16
HETATM   16  N   UNK     0       4.469   6.233 -13.316  0.00  0.00    -0.264 N 
HETATM   17  H   UNK     0       5.388   6.345 -12.872  0.00  0.00     0.180 HD
BRANCH  16  18
HETATM   18  C   UNK     0       4.420   6.444 -14.715  0.00  0.00     0.143 A 
HETATM   19  N   UNK     0       3.361   6.986 -15.324  0.00  0.00    -0.244 N 
HETATM   20  O   UNK     0       3.699   7.018 -16.672  0.00  0.00    -0.240 OA
HETATM   21  HN  UNK     0       2.494   7.308 -14.894  1.00  0.00     0.196 HD
HETATM   22  C   UNK     0       4.942   6.496 -16.834  0.00  0.00     0.082 A 
HETATM   23  C   UNK     0       5.445   6.115 -15.618  0.00  0.00     0.016 A 
HETATM   24  C   UNK     0       5.455   6.451 -18.210  0.00  0.00     0.079 C 
HETATM   25  C   UNK     0       6.755   5.505 -15.337  0.00  0.00     0.055 C 
ENDBRANCH  16  18
ENDBRANCH  13  16
ENDBRANCH   8  13
ENDBRANCH   5   7
BRANCH   4  26
HETATM   26  C   UNK     0       3.527   2.137 -10.190  0.00  0.00     0.207 C 
BRANCH  26  27
HETATM   27  O   UNK     0       3.995   1.433  -9.048  0.00  0.00    -0.387 OA
BRANCH  27  28
HETATM   28  C   UNK     0       3.492   1.997  -7.844  0.00  0.00     0.163 C 
HETATM   29  C   UNK     0       2.293   2.864  -8.169  0.00  0.00     0.033 C 
ENDBRANCH  27  28
ENDBRANCH  26  27
ENDBRANCH   4  26
BRANCH   1  30
HETATM   30  C   UNK     0       6.706   0.486 -13.666  0.00  0.00     0.172 C 
BRANCH  30  31
HETATM   31  N   UNK     0       6.076   0.506 -14.974  0.00  0.00    -0.301 N 
HETATM   32  C   UNK     0       6.456   1.319 -16.007  0.00  0.00     0.254 A 
HETATM   33  O   UNK     0       7.348   2.153 -16.037  0.00  0.00    -0.270 OA
HETATM   34  C   UNK     0       5.522   0.987 -17.155  0.00  0.00     0.113 A 
HETATM   35  N   UNK     0       4.633  -0.063 -16.606  0.00  0.00    -0.362 N 
HETATM   36  C   UNK     0       6.267   0.465 -18.388  0.00  0.00     0.041 C 
HETATM   37  C   UNK     0       4.697   2.196 -17.608  0.00  0.00     0.041 C 
HETATM   38  C   UNK     0       5.038  -0.245 -15.387  0.00  0.00     0.083 A 
HETATM   39  HN  UNK     0       3.867  -0.539 -17.082  1.00  0.00     0.162 HD
HETATM   40  C   UNK     0       5.636   1.201 -19.565  0.00  0.00     0.003 C 
HETATM   41  C   UNK     0       5.255   2.550 -18.981  0.00  0.00     0.003 C 
BRANCH  38  42
HETATM   42  C   UNK     0       4.397  -1.239 -14.474  0.00  0.00     0.076 C 
BRANCH  42  43
HETATM   43  C   UNK     0       5.027  -2.618 -14.640  0.00  0.00     0.007 C 
BRANCH  43  44
HETATM   44  C   UNK     0       5.315  -3.298 -13.299  0.00  0.00    -0.004 C 
HETATM   45  C   UNK     0       4.969  -2.389 -12.130  0.00  0.00     0.005 C 
ENDBRANCH  43  44
ENDBRANCH  42  43
ENDBRANCH  38  42
ENDBRANCH  30  31
ENDBRANCH   1  30
TORSDOF 12
ENDMDL
MODEL 14
REMARK VINA RESULT:      -8.7     33.316     36.628
REMARK  12 active torsions:
REMARK  status: ('A' for Active; 'I' for Inactive)
REMARK    1  A    between atoms: S_1  and  N_10 
REMARK    2  A    between atoms: S_1  and  C_33 
REMARK    3  A    between atoms: O_3  and  C_31 
REMARK    4  A    between atoms: O_3  and  C_37 
REMARK    5  A    between atoms: N_9  and  C_21 
REMARK    6  A    between atoms: N_10  and  C_40 
REMARK    7  A    between atoms: C_19  and  C_20 
REMARK    8  A    between atoms: C_20  and  C_22 
REMARK    9  A    between atoms: C_21  and  C_23 
REMARK   10  A    between atoms: C_22  and  C_24 
REMARK   11  A    between atoms: C_27  and  C_31 
REMARK   12  A    between atoms: C_29  and  C_32 
ROOT
HETATM    1  C   UNK     0     -19.098   4.753  17.067  0.00  0.00    -0.039 A 
HETATM    2  C   UNK     0     -20.472   4.512  17.050  0.00  0.00     0.019 A 
HETATM    3  C   UNK     0     -18.235   3.918  16.358  0.00  0.00     0.010 A 
HETATM    4  C   UNK     0     -20.983   3.436  16.324  0.00  0.00    -0.023 A 
HETATM    5  C   UNK     0     -20.119   2.602  15.614  0.00  0.00    -0.016 A 
HETATM    6  C   UNK     0     -18.746   2.842  15.630  0.00  0.00     0.013 A 
ENDROOT
BRANCH   5   7
HETATM    7  C   UNK     0     -20.625   1.479  14.850  0.00  0.00    -0.002 A 
HETATM    8  C   UNK     0     -20.685   0.195  15.392  0.00  0.00     0.090 A 
HETATM    9  C   UNK     0     -21.179  -0.862  14.628  0.00  0.00     0.026 A 
HETATM   10  C   UNK     0     -21.614  -0.636  13.322  0.00  0.00     0.002 A 
HETATM   11  C   UNK     0     -21.554   0.647  12.780  0.00  0.00     0.001 A 
HETATM   12  C   UNK     0     -21.060   1.705  13.544  0.00  0.00     0.014 A 
BRANCH   8  13
HETATM   13  S   UNK     0     -20.153  -0.144  17.028  0.00  0.00     0.265 S 
HETATM   14  O   UNK     0     -18.741   0.196  17.119  0.00  0.00    -0.200 OA
HETATM   15  O   UNK     0     -21.105   0.470  17.942  0.00  0.00    -0.200 OA
BRANCH  13  16
HETATM   16  N   UNK     0     -20.328  -1.839  17.086  0.00  0.00    -0.264 N 
HETATM   17  H   UNK     0     -21.237  -2.239  16.822  0.00  0.00     0.180 HD
BRANCH  16  18
HETATM   18  C   UNK     0     -19.268  -2.759  17.269  0.00  0.00     0.143 A 
HETATM   19  N   UNK     0     -18.809  -3.535  16.283  0.00  0.00    -0.244 N 
HETATM   20  O   UNK     0     -17.789  -4.283  16.858  0.00  0.00    -0.240 OA
HETATM   21  HN  UNK     0     -19.137  -3.571  15.317  1.00  0.00     0.196 HD
HETATM   22  C   UNK     0     -17.664  -3.939  18.166  0.00  0.00     0.082 A 
HETATM   23  C   UNK     0     -18.583  -2.972  18.477  0.00  0.00     0.016 A 
HETATM   24  C   UNK     0     -16.625  -4.643  18.928  0.00  0.00     0.079 C 
HETATM   25  C   UNK     0     -18.793  -2.317  19.780  0.00  0.00     0.055 C 
ENDBRANCH  16  18
ENDBRANCH  13  16
ENDBRANCH   8  13
ENDBRANCH   5   7
BRANCH   4  26
HETATM   26  C   UNK     0     -22.461   3.211  16.327  0.00  0.00     0.207 C 
BRANCH  26  27
HETATM   27  O   UNK     0     -23.114   4.391  16.774  0.00  0.00    -0.387 OA
BRANCH  27  28
HETATM   28  C   UNK     0     -23.941   4.945  15.759  0.00  0.00     0.163 C 
HETATM   29  C   UNK     0     -23.319   6.234  15.265  0.00  0.00     0.033 C 
ENDBRANCH  27  28
ENDBRANCH  26  27
ENDBRANCH   4  26
BRANCH   1  30
HETATM   30  C   UNK     0     -18.548   5.910  17.849  0.00  0.00     0.172 C 
BRANCH  30  31
HETATM   31  N   UNK     0     -17.601   6.690  17.072  0.00  0.00    -0.301 N 
HETATM   32  C   UNK     0     -16.255   6.749  17.317  0.00  0.00     0.254 A 
HETATM   33  O   UNK     0     -15.612   6.194  18.194  0.00  0.00    -0.270 OA
HETATM   34  C   UNK     0     -15.686   7.674  16.259  0.00  0.00     0.113 A 
HETATM   35  N   UNK     0     -16.866   8.083  15.463  0.00  0.00    -0.362 N 
HETATM   36  C   UNK     0     -14.651   6.982  15.366  0.00  0.00     0.041 C 
HETATM   37  C   UNK     0     -15.004   8.906  16.864  0.00  0.00     0.041 C 
HETATM   38  C   UNK     0     -17.871   7.472  16.010  0.00  0.00     0.083 A 
HETATM   39  HN  UNK     0     -16.884   8.710  14.658  1.00  0.00     0.162 HD
HETATM   40  C   UNK     0     -13.503   7.979  15.254  0.00  0.00     0.003 C 
HETATM   41  C   UNK     0     -13.519   8.694  16.593  0.00  0.00     0.003 C 
BRANCH  38  42
HETATM   42  C   UNK     0     -19.267   7.616  15.497  0.00  0.00     0.076 C 
BRANCH  42  43
HETATM   43  C   UNK     0     -19.315   7.423  13.985  0.00  0.00     0.007 C 
BRANCH  43  44
HETATM   44  C   UNK     0     -19.065   5.971  13.570  0.00  0.00    -0.004 C 
HETATM   45  C   UNK     0     -20.351   5.289  13.129  0.00  0.00     0.005 C 
ENDBRANCH  43  44
ENDBRANCH  42  43
ENDBRANCH  38  42
ENDBRANCH  30  31
ENDBRANCH   1  30
TORSDOF 12
ENDMDL
MODEL 15
REMARK VINA RESULT:      -8.6     33.177     35.928
REMARK  12 active torsions:
REMARK  status: ('A' for Active; 'I' for Inactive)
REMARK    1  A    between atoms: S_1  and  N_10 
REMARK    2  A    between atoms: S_1  and  C_33 
REMARK    3  A    between atoms: O_3  and  C_31 
REMARK    4  A    between atoms: O_3  and  C_37 
REMARK    5  A    between atoms: N_9  and  C_21 
REMARK    6  A    between atoms: N_10  and  C_40 
REMARK    7  A    between atoms: C_19  and  C_20 
REMARK    8  A    between atoms: C_20  and  C_22 
REMARK    9  A    between atoms: C_21  and  C_23 
REMARK   10  A    between atoms: C_22  and  C_24 
REMARK   11  A    between atoms: C_27  and  C_31 
REMARK   12  A    between atoms: C_29  and  C_32 
ROOT
HETATM    1  C   UNK     0     -19.490   5.261  13.605  0.00  0.00    -0.039 A 
HETATM    2  C   UNK     0     -20.852   4.984  13.714  0.00  0.00     0.019 A 
HETATM    3  C   UNK     0     -18.633   4.334  13.013  0.00  0.00     0.010 A 
HETATM    4  C   UNK     0     -21.359   3.777  13.229  0.00  0.00    -0.023 A 
HETATM    5  C   UNK     0     -20.502   2.850  12.636  0.00  0.00    -0.016 A 
HETATM    6  C   UNK     0     -19.140   3.127  12.528  0.00  0.00     0.013 A 
ENDROOT
BRANCH   5   7
HETATM    7  C   UNK     0     -21.004   1.590  12.123  0.00  0.00    -0.002 A 
HETATM    8  C   UNK     0     -21.025   0.438  12.910  0.00  0.00     0.090 A 
HETATM    9  C   UNK     0     -21.517  -0.756  12.384  0.00  0.00     0.026 A 
HETATM   10  C   UNK     0     -21.987  -0.799  11.071  0.00  0.00     0.002 A 
HETATM   11  C   UNK     0     -21.965   0.352  10.284  0.00  0.00     0.001 A 
HETATM   12  C   UNK     0     -21.474   1.547  10.811  0.00  0.00     0.014 A 
BRANCH   8  13
HETATM   13  S   UNK     0     -20.448   0.438  14.566  0.00  0.00     0.265 S 
HETATM   14  O   UNK     0     -19.062   0.881  14.557  0.00  0.00    -0.200 OA
HETATM   15  O   UNK     0     -21.427   1.144  15.379  0.00  0.00    -0.200 OA
BRANCH  13  16
HETATM   16  N   UNK     0     -20.504  -1.226  14.933  0.00  0.00    -0.264 N 
HETATM   17  H   UNK     0     -21.288  -1.776  14.559  0.00  0.00     0.180 HD
BRANCH  16  18
HETATM   18  C   UNK     0     -19.456  -1.960  15.537  0.00  0.00     0.143 A 
HETATM   19  N   UNK     0     -18.734  -2.866  14.872  0.00  0.00    -0.244 N 
HETATM   20  O   UNK     0     -17.825  -3.356  15.802  0.00  0.00    -0.240 OA
HETATM   21  HN  UNK     0     -18.829  -3.138  13.893  1.00  0.00     0.196 HD
HETATM   22  C   UNK     0     -18.026  -2.736  16.993  0.00  0.00     0.082 A 
HETATM   23  C   UNK     0     -19.053  -1.838  16.878  0.00  0.00     0.016 A 
HETATM   24  C   UNK     0     -17.144  -3.143  18.096  0.00  0.00     0.079 C 
HETATM   25  C   UNK     0     -19.599  -0.956  17.924  0.00  0.00     0.055 C 
ENDBRANCH  16  18
ENDBRANCH  13  16
ENDBRANCH   8  13
ENDBRANCH   5   7
BRANCH   4  26
HETATM   26  C   UNK     0     -22.825   3.515  13.361  0.00  0.00     0.207 C 
BRANCH  26  27
HETATM   27  O   UNK     0     -23.514   4.172  12.307  0.00  0.00    -0.387 OA
BRANCH  27  28
HETATM   28  C   UNK     0     -24.557   3.361  11.780  0.00  0.00     0.163 C 
HETATM   29  C   UNK     0     -24.695   2.118  12.635  0.00  0.00     0.033 C 
ENDBRANCH  27  28
ENDBRANCH  26  27
ENDBRANCH   4  26
BRANCH   1  30
HETATM   30  C   UNK     0     -18.944   6.559  14.127  0.00  0.00     0.172 C 
BRANCH  30  31
HETATM   31  N   UNK     0     -18.243   6.386  15.388  0.00  0.00    -0.301 N 
HETATM   32  C   UNK     0     -18.849   6.112  16.583  0.00  0.00     0.254 A 
HETATM   33  O   UNK     0     -20.038   5.970  16.824  0.00  0.00    -0.270 OA
HETATM   34  C   UNK     0     -17.728   6.018  17.600  0.00  0.00     0.113 A 
HETATM   35  N   UNK     0     -16.502   6.278  16.811  0.00  0.00    -0.362 N 
HETATM   36  C   UNK     0     -17.653   4.643  18.269  0.00  0.00     0.041 C 
HETATM   37  C   UNK     0     -17.865   7.055  18.720  0.00  0.00     0.041 C 
HETATM   38  C   UNK     0     -16.915   6.467  15.596  0.00  0.00     0.083 A 
HETATM   39  HN  UNK     0     -15.540   6.302  17.149  1.00  0.00     0.162 HD
HETATM   40  C   UNK     0     -17.461   4.940  19.752  0.00  0.00     0.003 C 
HETATM   41  C   UNK     0     -18.220   6.239  19.958  0.00  0.00     0.003 C 
BRANCH  38  42
HETATM   42  C   UNK     0     -15.977   6.760  14.471  0.00  0.00     0.076 C 
BRANCH  42  43
HETATM   43  C   UNK     0     -14.533   6.794  14.959  0.00  0.00     0.007 C 
BRANCH  43  44
HETATM   44  C   UNK     0     -13.892   8.175  14.805  0.00  0.00    -0.004 C 
HETATM   45  C   UNK     0     -12.867   8.437  15.897  0.00  0.00     0.005 C 
ENDBRANCH  43  44
ENDBRANCH  42  43
ENDBRANCH  38  42
ENDBRANCH  30  31
ENDBRANCH   1  30
TORSDOF 12
ENDMDL
MODEL 16
REMARK VINA RESULT:      -8.6     33.965     36.593
REMARK  12 active torsions:
REMARK  status: ('A' for Active; 'I' for Inactive)
REMARK    1  A    between atoms: S_1  and  N_10 
REMARK    2  A    between atoms: S_1  and  C_33 
REMARK    3  A    between atoms: O_3  and  C_31 
REMARK    4  A    between atoms: O_3  and  C_37 
REMARK    5  A    between atoms: N_9  and  C_21 
REMARK    6  A    between atoms: N_10  and  C_40 
REMARK    7  A    between atoms: C_19  and  C_20 
REMARK    8  A    between atoms: C_20  and  C_22 
REMARK    9  A    between atoms: C_21  and  C_23 
REMARK   10  A    between atoms: C_22  and  C_24 
REMARK   11  A    between atoms: C_27  and  C_31 
REMARK   12  A    between atoms: C_29  and  C_32 
ROOT
HETATM    1  C   UNK     0     -18.970   2.122  13.963  0.00  0.00    -0.039 A 
HETATM    2  C   UNK     0     -19.314   1.075  13.108  0.00  0.00     0.019 A 
HETATM    3  C   UNK     0     -19.458   2.145  15.269  0.00  0.00     0.010 A 
HETATM    4  C   UNK     0     -20.145   0.050  13.560  0.00  0.00    -0.023 A 
HETATM    5  C   UNK     0     -20.632   0.072  14.867  0.00  0.00    -0.016 A 
HETATM    6  C   UNK     0     -20.289   1.119  15.722  0.00  0.00     0.013 A 
ENDROOT
BRANCH   5   7
HETATM    7  C   UNK     0     -21.496  -0.982  15.361  0.00  0.00    -0.002 A 
HETATM    8  C   UNK     0     -20.975  -2.141  15.939  0.00  0.00     0.090 A 
HETATM    9  C   UNK     0     -21.836  -3.134  16.405  0.00  0.00     0.026 A 
HETATM   10  C   UNK     0     -23.217  -2.969  16.294  0.00  0.00     0.002 A 
HETATM   11  C   UNK     0     -23.737  -1.812  15.716  0.00  0.00     0.001 A 
HETATM   12  C   UNK     0     -22.877  -0.818  15.250  0.00  0.00     0.014 A 
BRANCH   8  13
HETATM   13  S   UNK     0     -19.249  -2.397  16.104  0.00  0.00     0.265 S 
HETATM   14  O   UNK     0     -18.743  -2.877  14.827  0.00  0.00    -0.200 OA
HETATM   15  O   UNK     0     -18.676  -1.202  16.705  0.00  0.00    -0.200 OA
BRANCH  13  16
HETATM   16  N   UNK     0     -19.214  -3.671  17.237  0.00  0.00    -0.264 N 
HETATM   17  H   UNK     0     -19.923  -4.410  17.155  0.00  0.00     0.180 HD
BRANCH  16  18
HETATM   18  C   UNK     0     -18.167  -3.908  18.159  0.00  0.00     0.143 A 
HETATM   19  N   UNK     0     -17.168  -4.761  17.912  0.00  0.00    -0.244 N 
HETATM   20  O   UNK     0     -16.363  -4.713  19.044  0.00  0.00    -0.240 OA
HETATM   21  HN  UNK     0     -17.027  -5.325  17.073  1.00  0.00     0.196 HD
HETATM   22  C   UNK     0     -16.897  -3.838  19.935  0.00  0.00     0.082 A 
HETATM   23  C   UNK     0     -18.046  -3.299  19.420  0.00  0.00     0.016 A 
HETATM   24  C   UNK     0     -16.167  -3.668  21.198  0.00  0.00     0.079 C 
HETATM   25  C   UNK     0     -18.938  -2.312  20.051  0.00  0.00     0.055 C 
ENDBRANCH  16  18
ENDBRANCH  13  16
ENDBRANCH   8  13
ENDBRANCH   5   7
BRANCH   4  26
HETATM   26  C   UNK     0     -20.490  -1.058  12.617  0.00  0.00     0.207 C 
BRANCH  26  27
HETATM   27  O   UNK     0     -21.615  -0.676  11.837  0.00  0.00    -0.387 OA
BRANCH  27  28
HETATM   28  C   UNK     0     -22.275  -1.807  11.284  0.00  0.00     0.163 C 
HETATM   29  C   UNK     0     -22.117  -2.980  12.228  0.00  0.00     0.033 C 
ENDBRANCH  27  28
ENDBRANCH  26  27
ENDBRANCH   4  26
BRANCH   1  30
HETATM   30  C   UNK     0     -18.076   3.226  13.477  0.00  0.00     0.172 C 
BRANCH  30  31
HETATM   31  N   UNK     0     -18.398   4.499  14.098  0.00  0.00    -0.301 N 
HETATM   32  C   UNK     0     -17.713   5.047  15.148  0.00  0.00     0.254 A 
HETATM   33  O   UNK     0     -16.748   4.600  15.749  0.00  0.00    -0.270 OA
HETATM   34  C   UNK     0     -18.404   6.363  15.446  0.00  0.00     0.113 A 
HETATM   35  N   UNK     0     -19.504   6.426  14.456  0.00  0.00    -0.362 N 
HETATM   36  C   UNK     0     -17.471   7.568  15.287  0.00  0.00     0.041 C 
HETATM   37  C   UNK     0     -18.969   6.419  16.869  0.00  0.00     0.041 C 
HETATM   38  C   UNK     0     -19.398   5.335  13.763  0.00  0.00     0.083 A 
HETATM   39  HN  UNK     0     -20.195   7.168  14.344  1.00  0.00     0.162 HD
HETATM   40  C   UNK     0     -17.742   8.436  16.511  0.00  0.00     0.003 C 
HETATM   41  C   UNK     0     -18.087   7.429  17.594  0.00  0.00     0.003 C 
BRANCH  38  42
HETATM   42  C   UNK     0     -20.331   5.009  12.642  0.00  0.00     0.076 C 
BRANCH  42  43
HETATM   43  C   UNK     0     -21.663   4.492  13.175  0.00  0.00     0.007 C 
BRANCH  43  44
HETATM   44  C   UNK     0     -22.230   3.349  12.330  0.00  0.00    -0.004 C 
HETATM   45  C   UNK     0     -23.033   2.376  13.179  0.00  0.00     0.005 C 
ENDBRANCH  43  44
ENDBRANCH  42  43
ENDBRANCH  38  42
ENDBRANCH  30  31
ENDBRANCH   1  30
TORSDOF 12
ENDMDL
MODEL 17
REMARK VINA RESULT:      -8.6     32.327     35.560
REMARK  12 active torsions:
REMARK  status: ('A' for Active; 'I' for Inactive)
REMARK    1  A    between atoms: S_1  and  N_10 
REMARK    2  A    between atoms: S_1  and  C_33 
REMARK    3  A    between atoms: O_3  and  C_31 
REMARK    4  A    between atoms: O_3  and  C_37 
REMARK    5  A    between atoms: N_9  and  C_21 
REMARK    6  A    between atoms: N_10  and  C_40 
REMARK    7  A    between atoms: C_19  and  C_20 
REMARK    8  A    between atoms: C_20  and  C_22 
REMARK    9  A    between atoms: C_21  and  C_23 
REMARK   10  A    between atoms: C_22  and  C_24 
REMARK   11  A    between atoms: C_27  and  C_31 
REMARK   12  A    between atoms: C_29  and  C_32 
ROOT
HETATM    1  C   UNK     0     -19.415   5.329  13.909  0.00  0.00    -0.039 A 
HETATM    2  C   UNK     0     -18.614   4.564  13.061  0.00  0.00     0.019 A 
HETATM    3  C   UNK     0     -20.711   4.912  14.210  0.00  0.00     0.010 A 
HETATM    4  C   UNK     0     -19.110   3.380  12.515  0.00  0.00    -0.023 A 
HETATM    5  C   UNK     0     -20.406   2.962  12.817  0.00  0.00    -0.016 A 
HETATM    6  C   UNK     0     -21.207   3.727  13.664  0.00  0.00     0.013 A 
ENDROOT
BRANCH   5   7
HETATM    7  C   UNK     0     -20.944   1.735  12.263  0.00  0.00    -0.002 A 
HETATM    8  C   UNK     0     -21.037   0.570  13.026  0.00  0.00     0.090 A 
HETATM    9  C   UNK     0     -21.562  -0.592  12.461  0.00  0.00     0.026 A 
HETATM   10  C   UNK     0     -21.992  -0.591  11.134  0.00  0.00     0.002 A 
HETATM   11  C   UNK     0     -21.898   0.573  10.371  0.00  0.00     0.001 A 
HETATM   12  C   UNK     0     -21.374   1.736  10.936  0.00  0.00     0.014 A 
BRANCH   8  13
HETATM   13  S   UNK     0     -20.513   0.515  14.698  0.00  0.00     0.265 S 
HETATM   14  O   UNK     0     -19.142   1.000  14.753  0.00  0.00    -0.200 OA
HETATM   15  O   UNK     0     -21.539   1.153  15.509  0.00  0.00    -0.200 OA
BRANCH  13  16
HETATM   16  N   UNK     0     -20.526  -1.165  14.990  0.00  0.00    -0.264 N 
HETATM   17  H   UNK     0     -21.303  -1.716  14.603  0.00  0.00     0.180 HD
BRANCH  16  18
HETATM   18  C   UNK     0     -19.453  -1.901  15.547  0.00  0.00     0.143 A 
HETATM   19  N   UNK     0     -18.764  -2.809  14.849  0.00  0.00    -0.244 N 
HETATM   20  O   UNK     0     -17.815  -3.301  15.737  0.00  0.00    -0.240 OA
HETATM   21  HN  UNK     0     -18.904  -3.081  13.876  1.00  0.00     0.196 HD
HETATM   22  C   UNK     0     -17.959  -2.680  16.936  0.00  0.00     0.082 A 
HETATM   23  C   UNK     0     -18.989  -1.779  16.867  0.00  0.00     0.016 A 
HETATM   24  C   UNK     0     -17.030  -3.088  17.997  0.00  0.00     0.079 C 
HETATM   25  C   UNK     0     -19.484  -0.896  17.937  0.00  0.00     0.055 C 
ENDBRANCH  16  18
ENDBRANCH  13  16
ENDBRANCH   8  13
ENDBRANCH   5   7
BRANCH   4  26
HETATM   26  C   UNK     0     -18.222   2.584  11.612  0.00  0.00     0.207 C 
BRANCH  26  27
HETATM   27  O   UNK     0     -17.363   1.771  12.399  0.00  0.00    -0.387 OA
BRANCH  27  28
HETATM   28  C   UNK     0     -16.912   0.635  11.674  0.00  0.00     0.163 C 
HETATM   29  C   UNK     0     -17.808  -0.543  11.996  0.00  0.00     0.033 C 
ENDBRANCH  27  28
ENDBRANCH  26  27
ENDBRANCH   4  26
BRANCH   1  30
HETATM   30  C   UNK     0     -18.882   6.604  14.497  0.00  0.00     0.172 C 
BRANCH  30  31
HETATM   31  N   UNK     0     -18.105   6.364  15.700  0.00  0.00    -0.301 N 
HETATM   32  C   UNK     0     -18.640   6.109  16.934  0.00  0.00     0.254 A 
HETATM   33  O   UNK     0     -19.815   6.040  17.259  0.00  0.00    -0.270 OA
HETATM   34  C   UNK     0     -17.457   5.925  17.864  0.00  0.00     0.113 A 
HETATM   35  N   UNK     0     -16.276   6.118  16.990  0.00  0.00    -0.362 N 
HETATM   36  C   UNK     0     -17.424   4.536  18.508  0.00  0.00     0.041 C 
HETATM   37  C   UNK     0     -17.444   6.948  19.005  0.00  0.00     0.041 C 
HETATM   38  C   UNK     0     -16.763   6.355  15.812  0.00  0.00     0.083 A 
HETATM   39  HN  UNK     0     -15.293   6.074  17.258  1.00  0.00     0.162 HD
HETATM   40  C   UNK     0     -17.106   4.794  19.977  0.00  0.00     0.003 C 
HETATM   41  C   UNK     0     -17.761   6.136  20.254  0.00  0.00     0.003 C 
BRANCH  38  42
HETATM   42  C   UNK     0     -15.891   6.607  14.625  0.00  0.00     0.076 C 
BRANCH  42  43
HETATM   43  C   UNK     0     -14.432   6.754  15.041  0.00  0.00     0.007 C 
BRANCH  43  44
HETATM   44  C   UNK     0     -13.957   8.209  15.011  0.00  0.00    -0.004 C 
HETATM   45  C   UNK     0     -13.299   8.606  16.323  0.00  0.00     0.005 C 
ENDBRANCH  43  44
ENDBRANCH  42  43
ENDBRANCH  38  42
ENDBRANCH  30  31
ENDBRANCH   1  30
TORSDOF 12
ENDMDL
MODEL 18
REMARK VINA RESULT:      -8.4     32.957     36.149
REMARK  12 active torsions:
REMARK  status: ('A' for Active; 'I' for Inactive)
REMARK    1  A    between atoms: S_1  and  N_10 
REMARK    2  A    between atoms: S_1  and  C_33 
REMARK    3  A    between atoms: O_3  and  C_31 
REMARK    4  A    between atoms: O_3  and  C_37 
REMARK    5  A    between atoms: N_9  and  C_21 
REMARK    6  A    between atoms: N_10  and  C_40 
REMARK    7  A    between atoms: C_19  and  C_20 
REMARK    8  A    between atoms: C_20  and  C_22 
REMARK    9  A    between atoms: C_21  and  C_23 
REMARK   10  A    between atoms: C_22  and  C_24 
REMARK   11  A    between atoms: C_27  and  C_31 
REMARK   12  A    between atoms: C_29  and  C_32 
ROOT
HETATM    1  C   UNK     0     -21.072   0.426  16.049  0.00  0.00    -0.039 A 
HETATM    2  C   UNK     0     -21.169   1.016  14.789  0.00  0.00     0.019 A 
HETATM    3  C   UNK     0     -20.727   1.198  17.158  0.00  0.00     0.010 A 
HETATM    4  C   UNK     0     -20.920   2.380  14.638  0.00  0.00    -0.023 A 
HETATM    5  C   UNK     0     -20.576   3.153  15.746  0.00  0.00    -0.016 A 
HETATM    6  C   UNK     0     -20.479   2.564  17.006  0.00  0.00     0.013 A 
ENDROOT
BRANCH   5   7
HETATM    7  C   UNK     0     -20.314   4.574  15.616  0.00  0.00    -0.002 A 
HETATM    8  C   UNK     0     -19.015   5.081  15.638  0.00  0.00     0.090 A 
HETATM    9  C   UNK     0     -18.801   6.453  15.508  0.00  0.00     0.026 A 
HETATM   10  C   UNK     0     -19.885   7.318  15.356  0.00  0.00     0.002 A 
HETATM   11  C   UNK     0     -21.184   6.810  15.334  0.00  0.00     0.001 A 
HETATM   12  C   UNK     0     -21.398   5.438  15.464  0.00  0.00     0.014 A 
BRANCH   8  13
HETATM   13  S   UNK     0     -17.618   4.040  15.824  0.00  0.00     0.265 S 
HETATM   14  O   UNK     0     -17.542   3.638  17.221  0.00  0.00    -0.200 OA
HETATM   15  O   UNK     0     -17.676   3.025  14.783  0.00  0.00    -0.200 OA
BRANCH  13  16
HETATM   16  N   UNK     0     -16.349   5.127  15.483  0.00  0.00    -0.264 N 
HETATM   17  H   UNK     0     -15.898   5.067  14.562  0.00  0.00     0.180 HD
BRANCH  16  18
HETATM   18  C   UNK     0     -15.998   6.241  16.281  0.00  0.00     0.143 A 
HETATM   19  N   UNK     0     -16.278   6.309  17.586  0.00  0.00    -0.244 N 
HETATM   20  O   UNK     0     -15.781   7.540  17.998  0.00  0.00    -0.240 OA
HETATM   21  HN  UNK     0     -16.753   5.609  18.156  1.00  0.00     0.196 HD
HETATM   22  C   UNK     0     -15.221   8.174  16.936  0.00  0.00     0.082 A 
HETATM   23  C   UNK     0     -15.333   7.389  15.819  0.00  0.00     0.016 A 
HETATM   24  C   UNK     0     -14.646   9.500  17.199  0.00  0.00     0.079 C 
HETATM   25  C   UNK     0     -14.862   7.691  14.457  0.00  0.00     0.055 C 
ENDBRANCH  16  18
ENDBRANCH  13  16
ENDBRANCH   8  13
ENDBRANCH   5   7
BRANCH   4  26
HETATM   26  C   UNK     0     -21.036   2.979  13.273  0.00  0.00     0.207 C 
BRANCH  26  27
HETATM   27  O   UNK     0     -22.399   3.275  13.004  0.00  0.00    -0.387 OA
BRANCH  27  28
HETATM   28  C   UNK     0     -22.842   2.652  11.806  0.00  0.00     0.163 C 
HETATM   29  C   UNK     0     -21.656   2.013  11.114  0.00  0.00     0.033 C 
ENDBRANCH  27  28
ENDBRANCH  26  27
ENDBRANCH   4  26
BRANCH   1  30
HETATM   30  C   UNK     0     -21.339  -1.043  16.213  0.00  0.00     0.172 C 
BRANCH  30  31
HETATM   31  N   UNK     0     -20.113  -1.802  16.387  0.00  0.00    -0.301 N 
HETATM   32  C   UNK     0     -19.571  -2.136  17.599  0.00  0.00     0.254 A 
HETATM   33  O   UNK     0     -19.981  -1.875  18.719  0.00  0.00    -0.270 OA
HETATM   34  C   UNK     0     -18.312  -2.919  17.282  0.00  0.00     0.113 A 
HETATM   35  N   UNK     0     -18.262  -2.942  15.802  0.00  0.00    -0.362 N 
HETATM   36  C   UNK     0     -18.349  -4.345  17.839  0.00  0.00     0.041 C 
HETATM   37  C   UNK     0     -17.051  -2.252  17.843  0.00  0.00     0.041 C 
HETATM   38  C   UNK     0     -19.316  -2.290  15.418  0.00  0.00     0.083 A 
HETATM   39  HN  UNK     0     -17.554  -3.378  15.212  1.00  0.00     0.162 HD
HETATM   40  C   UNK     0     -16.975  -4.555  18.468  0.00  0.00     0.003 C 
HETATM   41  C   UNK     0     -16.597  -3.172  18.969  0.00  0.00     0.003 C 
BRANCH  38  42
HETATM   42  C   UNK     0     -19.645  -2.084  13.975  0.00  0.00     0.076 C 
BRANCH  42  43
HETATM   43  C   UNK     0     -18.567  -1.257  13.283  0.00  0.00     0.007 C 
BRANCH  43  44
HETATM   44  C   UNK     0     -19.144  -0.280  12.256  0.00  0.00    -0.004 C 
HETATM   45  C   UNK     0     -18.198   0.883  12.003  0.00  0.00     0.005 C 
ENDBRANCH  43  44
ENDBRANCH  42  43
ENDBRANCH  38  42
ENDBRANCH  30  31
ENDBRANCH   1  30
TORSDOF 12
ENDMDL
MODEL 19
REMARK VINA RESULT:      -8.2     32.433     36.336
REMARK  12 active torsions:
REMARK  status: ('A' for Active; 'I' for Inactive)
REMARK    1  A    between atoms: S_1  and  N_10 
REMARK    2  A    between atoms: S_1  and  C_33 
REMARK    3  A    between atoms: O_3  and  C_31 
REMARK    4  A    between atoms: O_3  and  C_37 
REMARK    5  A    between atoms: N_9  and  C_21 
REMARK    6  A    between atoms: N_10  and  C_40 
REMARK    7  A    between atoms: C_19  and  C_20 
REMARK    8  A    between atoms: C_20  and  C_22 
REMARK    9  A    between atoms: C_21  and  C_23 
REMARK   10  A    between atoms: C_22  and  C_24 
REMARK   11  A    between atoms: C_27  and  C_31 
REMARK   12  A    between atoms: C_29  and  C_32 
ROOT
HETATM    1  C   UNK     0     -21.815   2.547  13.914  0.00  0.00    -0.039 A 
HETATM    2  C   UNK     0     -22.173   1.425  13.167  0.00  0.00     0.019 A 
HETATM    3  C   UNK     0     -21.566   2.426  15.281  0.00  0.00     0.010 A 
HETATM    4  C   UNK     0     -22.281   0.180  13.788  0.00  0.00    -0.023 A 
HETATM    5  C   UNK     0     -22.031   0.059  15.155  0.00  0.00    -0.016 A 
HETATM    6  C   UNK     0     -21.673   1.180  15.901  0.00  0.00     0.013 A 
ENDROOT
BRANCH   5   7
HETATM    7  C   UNK     0     -22.134  -1.224  15.823  0.00  0.00    -0.002 A 
HETATM    8  C   UNK     0     -21.019  -2.042  16.008  0.00  0.00     0.090 A 
HETATM    9  C   UNK     0     -21.155  -3.269  16.656  0.00  0.00     0.026 A 
HETATM   10  C   UNK     0     -22.405  -3.679  17.119  0.00  0.00     0.002 A 
HETATM   11  C   UNK     0     -23.520  -2.862  16.934  0.00  0.00     0.001 A 
HETATM   12  C   UNK     0     -23.384  -1.634  16.286  0.00  0.00     0.014 A 
BRANCH   8  13
HETATM   13  S   UNK     0     -19.426  -1.575  15.446  0.00  0.00     0.265 S 
HETATM   14  O   UNK     0     -19.453  -1.546  13.992  0.00  0.00    -0.200 OA
HETATM   15  O   UNK     0     -19.023  -0.387  16.185  0.00  0.00    -0.200 OA
BRANCH  13  16
HETATM   16  N   UNK     0     -18.492  -2.904  15.965  0.00  0.00    -0.264 N 
HETATM   17  H   UNK     0     -18.343  -3.676  15.303  0.00  0.00     0.180 HD
BRANCH  16  18
HETATM   18  C   UNK     0     -17.732  -2.947  17.158  0.00  0.00     0.143 A 
HETATM   19  N   UNK     0     -17.157  -1.861  17.684  0.00  0.00    -0.244 N 
HETATM   20  O   UNK     0     -16.513  -2.314  18.829  0.00  0.00    -0.240 OA
HETATM   21  HN  UNK     0     -17.186  -0.907  17.324  1.00  0.00     0.196 HD
HETATM   22  C   UNK     0     -16.716  -3.650  18.958  0.00  0.00     0.082 A 
HETATM   23  C   UNK     0     -17.486  -4.102  17.919  0.00  0.00     0.016 A 
HETATM   24  C   UNK     0     -16.096  -4.294  20.123  0.00  0.00     0.079 C 
HETATM   25  C   UNK     0     -17.943  -5.480  17.669  0.00  0.00     0.055 C 
ENDBRANCH  16  18
ENDBRANCH  13  16
ENDBRANCH   8  13
ENDBRANCH   5   7
BRANCH   4  26
HETATM   26  C   UNK     0     -22.664  -1.001  12.955  0.00  0.00     0.207 C 
BRANCH  26  27
HETATM   27  O   UNK     0     -22.836  -0.588  11.607  0.00  0.00    -0.387 OA
BRANCH  27  28
HETATM   28  C   UNK     0     -22.487  -1.622  10.696  0.00  0.00     0.163 C 
HETATM   29  C   UNK     0     -22.323  -2.919  11.461  0.00  0.00     0.033 C 
ENDBRANCH  27  28
ENDBRANCH  26  27
ENDBRANCH   4  26
BRANCH   1  30
HETATM   30  C   UNK     0     -21.700   3.888  13.247  0.00  0.00     0.172 C 
BRANCH  30  31
HETATM   31  N   UNK     0     -20.386   4.477  13.436  0.00  0.00    -0.301 N 
HETATM   32  C   UNK     0     -20.097   5.456  14.348  0.00  0.00     0.254 A 
HETATM   33  O   UNK     0     -20.844   6.008  15.141  0.00  0.00    -0.270 OA
HETATM   34  C   UNK     0     -18.618   5.747  14.182  0.00  0.00     0.113 A 
HETATM   35  N   UNK     0     -18.188   4.832  13.100  0.00  0.00    -0.362 N 
HETATM   36  C   UNK     0     -17.818   5.477  15.461  0.00  0.00     0.041 C 
HETATM   37  C   UNK     0     -18.348   7.202  13.784  0.00  0.00     0.041 C 
HETATM   38  C   UNK     0     -19.257   4.178  12.766  0.00  0.00     0.083 A 
HETATM   39  HN  UNK     0     -17.254   4.737  12.703  1.00  0.00     0.162 HD
HETATM   40  C   UNK     0     -16.893   6.681  15.603  0.00  0.00     0.003 C 
HETATM   41  C   UNK     0     -17.700   7.824  15.015  0.00  0.00     0.003 C 
BRANCH  38  42
HETATM   42  C   UNK     0     -19.253   3.137  11.694  0.00  0.00     0.076 C 
BRANCH  42  43
HETATM   43  C   UNK     0     -18.589   1.854  12.182  0.00  0.00     0.007 C 
BRANCH  43  44
HETATM   44  C   UNK     0     -17.250   1.585  11.491  0.00  0.00    -0.004 C 
HETATM   45  C   UNK     0     -16.932   0.099  11.454  0.00  0.00     0.005 C 
ENDBRANCH  43  44
ENDBRANCH  42  43
ENDBRANCH  38  42
ENDBRANCH  30  31
ENDBRANCH   1  30
TORSDOF 12
ENDMDL
MODEL 20
REMARK VINA RESULT:      -8.1     33.623     36.819
REMARK  12 active torsions:
REMARK  status: ('A' for Active; 'I' for Inactive)
REMARK    1  A    between atoms: S_1  and  N_10 
REMARK    2  A    between atoms: S_1  and  C_33 
REMARK    3  A    between atoms: O_3  and  C_31 
REMARK    4  A    between atoms: O_3  and  C_37 
REMARK    5  A    between atoms: N_9  and  C_21 
REMARK    6  A    between atoms: N_10  and  C_40 
REMARK    7  A    between atoms: C_19  and  C_20 
REMARK    8  A    between atoms: C_20  and  C_22 
REMARK    9  A    between atoms: C_21  and  C_23 
REMARK   10  A    between atoms: C_22  and  C_24 
REMARK   11  A    between atoms: C_27  and  C_31 
REMARK   12  A    between atoms: C_29  and  C_32 
ROOT
HETATM    1  C   UNK     0     -18.996   1.223  13.664  0.00  0.00    -0.039 A 
HETATM    2  C   UNK     0     -19.544   1.592  14.893  0.00  0.00     0.019 A 
HETATM    3  C   UNK     0     -19.148  -0.082  13.195  0.00  0.00     0.010 A 
HETATM    4  C   UNK     0     -20.245   0.656  15.653  0.00  0.00    -0.023 A 
HETATM    5  C   UNK     0     -20.398  -0.649  15.183  0.00  0.00    -0.016 A 
HETATM    6  C   UNK     0     -19.850  -1.018  13.956  0.00  0.00     0.013 A 
ENDROOT
BRANCH   5   7
HETATM    7  C   UNK     0     -21.124  -1.640  15.953  0.00  0.00    -0.002 A 
HETATM    8  C   UNK     0     -20.461  -2.577  16.747  0.00  0.00     0.090 A 
HETATM    9  C   UNK     0     -21.192  -3.514  17.476  0.00  0.00     0.026 A 
HETATM   10  C   UNK     0     -22.586  -3.517  17.410  0.00  0.00     0.002 A 
HETATM   11  C   UNK     0     -23.249  -2.582  16.616  0.00  0.00     0.001 A 
HETATM   12  C   UNK     0     -22.518  -1.643  15.888  0.00  0.00     0.014 A 
BRANCH   8  13
HETATM   13  S   UNK     0     -18.713  -2.616  16.866  0.00  0.00     0.265 S 
HETATM   14  O   UNK     0     -18.198  -3.273  15.674  0.00  0.00    -0.200 OA
HETATM   15  O   UNK     0     -18.258  -1.276  17.206  0.00  0.00    -0.200 OA
BRANCH  13  16
HETATM   16  N   UNK     0     -18.498  -3.643  18.210  0.00  0.00    -0.264 N 
HETATM   17  H   UNK     0     -18.928  -4.576  18.177  0.00  0.00     0.180 HD
BRANCH  16  18
HETATM   18  C   UNK     0     -17.608  -3.400  19.283  0.00  0.00     0.143 A 
HETATM   19  N   UNK     0     -16.336  -3.809  19.270  0.00  0.00    -0.244 N 
HETATM   20  O   UNK     0     -15.809  -3.386  20.485  0.00  0.00    -0.240 OA
HETATM   21  HN  UNK     0     -15.856  -4.320  18.530  1.00  0.00     0.196 HD
HETATM   22  C   UNK     0     -16.774  -2.740  21.190  0.00  0.00     0.082 A 
HETATM   23  C   UNK     0     -17.938  -2.722  20.469  0.00  0.00     0.016 A 
HETATM   24  C   UNK     0     -16.383  -2.227  22.509  0.00  0.00     0.079 C 
HETATM   25  C   UNK     0     -19.228  -2.127  20.857  0.00  0.00     0.055 C 
ENDBRANCH  16  18
ENDBRANCH  13  16
ENDBRANCH   8  13
ENDBRANCH   5   7
BRANCH   4  26
HETATM   26  C   UNK     0     -20.821   1.087  16.963  0.00  0.00     0.207 C 
BRANCH  26  27
HETATM   27  O   UNK     0     -20.003   2.106  17.521  0.00  0.00    -0.387 OA
BRANCH  27  28
HETATM   28  C   UNK     0     -20.748   3.289  17.781  0.00  0.00     0.163 C 
HETATM   29  C   UNK     0     -19.864   4.278  18.511  0.00  0.00     0.033 C 
ENDBRANCH  27  28
ENDBRANCH  26  27
ENDBRANCH   4  26
BRANCH   1  30
HETATM   30  C   UNK     0     -18.240   2.230  12.846  0.00  0.00     0.172 C 
BRANCH  30  31
HETATM   31  N   UNK     0     -18.614   3.593  13.181  0.00  0.00    -0.301 N 
HETATM   32  C   UNK     0     -18.022   4.343  14.161  0.00  0.00     0.254 A 
HETATM   33  O   UNK     0     -17.113   4.036  14.915  0.00  0.00    -0.270 OA
HETATM   34  C   UNK     0     -18.737   5.681  14.140  0.00  0.00     0.113 A 
HETATM   35  N   UNK     0     -19.748   5.535  13.068  0.00  0.00    -0.362 N 
HETATM   36  C   UNK     0     -17.794   6.848  13.832  0.00  0.00     0.041 C 
HETATM   37  C   UNK     0     -19.422   5.999  15.474  0.00  0.00     0.041 C 
HETATM   38  C   UNK     0     -19.583   4.333  12.609  0.00  0.00     0.083 A 
HETATM   39  HN  UNK     0     -20.427   6.229  12.758  1.00  0.00     0.162 HD
HETATM   40  C   UNK     0     -18.169   7.929  14.839  0.00  0.00     0.003 C 
HETATM   41  C   UNK     0     -18.606   7.144  16.062  0.00  0.00     0.003 C 
BRANCH  38  42
HETATM   42  C   UNK     0     -20.416   3.782  11.498  0.00  0.00     0.076 C 
BRANCH  42  43
HETATM   43  C   UNK     0     -21.807   3.404  11.995  0.00  0.00     0.007 C 
BRANCH  43  44
HETATM   44  C   UNK     0     -22.074   1.899  11.904  0.00  0.00    -0.004 C 
HETATM   45  C   UNK     0     -22.854   1.400  13.110  0.00  0.00     0.005 C 
ENDBRANCH  43  44
ENDBRANCH  42  43
ENDBRANCH  38  42
ENDBRANCH  30  31
ENDBRANCH   1  30
TORSDOF 12
ENDMDL
